<?xml version="1.0" encoding="UTF-8"?>

<!-- generated on Sunday 24 May 2020 10:29:14 AM IST by Eclipse SUMO netedit Version 1.6.0
<configuration xmlns:xsi="http://www.w3.org/2001/XMLSchema-instance" xsi:noNamespaceSchemaLocation="http://sumo.dlr.de/xsd/netconvertConfiguration.xsd">

    <input>
        <sumo-net-file value="cair.net.xml"/>
    </input>

    <output>
        <output-file value="cair.net.xml"/>
    </output>

    <processing>
        <geometry.min-radius.fix.railways value="false"/>
        <geometry.max-grade.fix value="false"/>
        <offset.disable-normalization value="true"/>
        <lefthand value="true"/>
    </processing>

    <junctions>
        <no-turnarounds value="true"/>
        <junctions.corner-detail value="5"/>
        <junctions.limit-turn-speed value="5.5"/>
        <rectangular-lane-cut value="false"/>
    </junctions>

    <pedestrian>
        <walkingareas value="false"/>
    </pedestrian>

    <report>
        <aggregate-warnings value="5"/>
    </report>

</configuration>
-->

<net version="1.6" junctionCornerDetail="5" lefthand="true" limitTurnSpeed="5.50" xmlns:xsi="http://www.w3.org/2001/XMLSchema-instance" xsi:noNamespaceSchemaLocation="http://sumo.dlr.de/xsd/net_file.xsd">

    <location netOffset="-789377.98,-1437095.08" convBoundary="0.00,0.00,192.99,356.02" origBoundary="77.667531,12.983895,77.669660,12.989973" projParameter="+proj=utm +zone=43 +ellps=WGS84 +datum=WGS84 +units=m +no_defs"/>

    <type id="highway.bridleway" priority="1" numLanes="1" speed="2.78" allow="pedestrian" oneway="1" width="2.00"/>
    <type id="highway.bus_guideway" priority="1" numLanes="1" speed="27.78" allow="bus" oneway="1"/>
    <type id="highway.cycleway" priority="1" numLanes="1" speed="8.33" allow="bicycle" oneway="0" width="1.00"/>
    <type id="highway.footway" priority="1" numLanes="1" speed="2.78" allow="pedestrian" oneway="1" width="2.00"/>
    <type id="highway.ford" priority="1" numLanes="1" speed="2.78" allow="army" oneway="0"/>
    <type id="highway.living_street" priority="2" numLanes="1" speed="2.78" disallow="tram rail_urban rail rail_electric rail_fast ship" oneway="0"/>
    <type id="highway.motorway" priority="14" numLanes="2" speed="39.44" allow="private emergency authority army vip passenger hov taxi bus coach delivery truck trailer motorcycle evehicle custom1 custom2" oneway="1"/>
    <type id="highway.motorway_link" priority="9" numLanes="1" speed="22.22" allow="private emergency authority army vip passenger hov taxi bus coach delivery truck trailer motorcycle evehicle custom1 custom2" oneway="1"/>
    <type id="highway.path" priority="1" numLanes="1" speed="2.78" allow="pedestrian bicycle" oneway="1" width="2.00"/>
    <type id="highway.pedestrian" priority="1" numLanes="1" speed="2.78" allow="pedestrian" oneway="1" width="2.00"/>
    <type id="highway.primary" priority="12" numLanes="2" speed="27.78" disallow="tram rail_urban rail rail_electric rail_fast ship" oneway="0"/>
    <type id="highway.primary_link" priority="7" numLanes="1" speed="22.22" disallow="tram rail_urban rail rail_electric rail_fast ship" oneway="0"/>
    <type id="highway.raceway" priority="15" numLanes="2" speed="83.33" allow="vip" oneway="0"/>
    <type id="highway.residential" priority="3" numLanes="1" speed="13.89" disallow="tram rail_urban rail rail_electric rail_fast ship" oneway="0"/>
    <type id="highway.secondary" priority="11" numLanes="1" speed="27.78" disallow="tram rail_urban rail rail_electric rail_fast ship" oneway="0"/>
    <type id="highway.secondary_link" priority="6" numLanes="1" speed="22.22" disallow="tram rail_urban rail rail_electric rail_fast ship" oneway="0"/>
    <type id="highway.service" priority="1" numLanes="1" speed="5.56" allow="pedestrian delivery bicycle" oneway="0"/>
    <type id="highway.stairs" priority="1" numLanes="1" speed="1.39" allow="pedestrian" oneway="1" width="2.00"/>
    <type id="highway.step" priority="1" numLanes="1" speed="1.39" allow="pedestrian" oneway="1" width="2.00"/>
    <type id="highway.steps" priority="1" numLanes="1" speed="1.39" allow="pedestrian" oneway="1" width="2.00"/>
    <type id="highway.tertiary" priority="10" numLanes="1" speed="22.22" disallow="tram rail_urban rail rail_electric rail_fast ship" oneway="0"/>
    <type id="highway.tertiary_link" priority="5" numLanes="1" speed="22.22" disallow="tram rail_urban rail rail_electric rail_fast ship" oneway="0"/>
    <type id="highway.track" priority="1" numLanes="1" speed="5.56" disallow="tram rail_urban rail rail_electric rail_fast ship" oneway="0"/>
    <type id="highway.trunk" priority="13" numLanes="2" speed="27.78" disallow="pedestrian bicycle tram rail_urban rail rail_electric rail_fast ship" oneway="0"/>
    <type id="highway.trunk_link" priority="8" numLanes="1" speed="22.22" disallow="pedestrian bicycle tram rail_urban rail rail_electric rail_fast ship" oneway="0"/>
    <type id="highway.unclassified" priority="4" numLanes="1" speed="13.89" disallow="tram rail_urban rail rail_electric rail_fast ship" oneway="0"/>
    <type id="highway.unsurfaced" priority="1" numLanes="1" speed="8.33" disallow="tram rail_urban rail rail_electric rail_fast ship" oneway="0"/>
    <type id="railway.highspeed" priority="21" numLanes="1" speed="69.44" allow="rail_fast" oneway="1"/>
    <type id="railway.light_rail" priority="19" numLanes="1" speed="27.78" allow="rail_urban" oneway="1"/>
    <type id="railway.preserved" priority="16" numLanes="1" speed="27.78" allow="rail" oneway="1"/>
    <type id="railway.rail" priority="20" numLanes="1" speed="44.44" allow="rail" oneway="1"/>
    <type id="railway.subway" priority="18" numLanes="1" speed="27.78" allow="rail_urban" oneway="1"/>
    <type id="railway.tram" priority="17" numLanes="1" speed="13.89" allow="tram" oneway="1"/>

    <edge id=":1154147726_0" function="internal">
        <lane id=":1154147726_0_0" index="0" disallow="tram rail_urban rail rail_electric rail_fast ship" speed="6.94" length="9.56" shape="111.48,352.06 109.08,351.58 107.31,350.37 106.17,348.43 105.66,345.76"/>
    </edge>
    <edge id=":1154147726_1" function="internal">
        <lane id=":1154147726_1_0" index="0" disallow="tram rail_urban rail rail_electric rail_fast ship" speed="27.78" length="14.41" shape="111.48,352.06 97.08,351.55"/>
    </edge>
    <edge id=":1154147726_2" function="internal">
        <lane id=":1154147726_2_0" index="0" disallow="tram rail_urban rail rail_electric rail_fast ship" speed="3.65" length="2.34" shape="111.48,352.06 110.25,352.81 109.81,353.59"/>
    </edge>
    <edge id=":1154147726_9" function="internal">
        <lane id=":1154147726_9_0" index="0" disallow="tram rail_urban rail rail_electric rail_fast ship" speed="3.65" length="2.34" shape="109.81,353.59 110.18,354.40 111.34,355.26"/>
    </edge>
    <edge id=":1154147726_3" function="internal">
        <lane id=":1154147726_3_0" index="0" disallow="tram rail_urban rail rail_electric rail_fast ship" speed="27.78" length="14.36" shape="96.98,354.75 111.34,355.26"/>
    </edge>
    <edge id=":1154147726_4" function="internal">
        <lane id=":1154147726_4_0" index="0" disallow="tram rail_urban rail rail_electric rail_fast ship" speed="7.85" length="5.88" shape="96.98,354.75 101.00,354.28 102.59,353.34"/>
    </edge>
    <edge id=":1154147726_5" function="internal">
        <lane id=":1154147726_5_0" index="0" disallow="tram rail_urban rail rail_electric rail_fast ship" speed="3.65" length="2.34" shape="96.98,354.75 98.21,353.98 98.63,353.19"/>
    </edge>
    <edge id=":1154147726_10" function="internal">
        <lane id=":1154147726_10_0" index="0" disallow="tram rail_urban rail rail_electric rail_fast ship" speed="7.85" length="8.67" shape="102.59,353.34 103.79,352.63 105.34,349.79 105.66,345.76"/>
    </edge>
    <edge id=":1154147726_11" function="internal">
        <lane id=":1154147726_11_0" index="0" disallow="tram rail_urban rail rail_electric rail_fast ship" speed="3.65" length="2.34" shape="98.63,353.19 98.25,352.38 97.08,351.55"/>
    </edge>
    <edge id=":1154147726_6" function="internal">
        <lane id=":1154147726_6_0" index="0" disallow="tram rail_urban rail rail_electric rail_fast ship" speed="6.32" length="9.04" shape="102.47,345.97 102.27,348.47 101.30,350.23 99.57,351.26 97.08,351.55"/>
    </edge>
    <edge id=":1154147726_7" function="internal">
        <lane id=":1154147726_7_0" index="0" disallow="tram rail_urban rail rail_electric rail_fast ship" speed="8.36" length="14.32" shape="102.47,345.97 103.23,349.90 104.97,352.75 107.67,354.54 111.34,355.26"/>
    </edge>
    <edge id=":1154147726_8" function="internal">
        <lane id=":1154147726_8_0" index="0" disallow="tram rail_urban rail rail_electric rail_fast ship" speed="3.65" length="4.67" shape="102.47,345.97 103.34,347.11 104.16,347.46 104.94,347.01 105.66,345.76"/>
    </edge>
    <edge id=":1154147727_0" function="internal">
        <lane id=":1154147727_0_0" index="0" disallow="tram rail_urban rail rail_electric rail_fast ship" speed="3.65" length="4.67" shape="166.00,357.62 167.23,356.87 167.67,356.09 167.30,355.27 166.14,354.42"/>
    </edge>
    <edge id=":1154147728_0" function="internal">
        <lane id=":1154147728_0_0" index="0" disallow="tram rail_urban rail rail_electric rail_fast ship" speed="3.65" length="4.67" shape="0.05,348.78 -1.18,349.55 -1.60,350.33 -1.22,351.15 -0.05,351.98"/>
    </edge>
    <edge id=":1563324011_0" function="internal">
        <lane id=":1563324011_0_0" index="0" disallow="tram rail_urban rail rail_electric rail_fast ship" speed="3.65" length="4.67" shape="192.99,195.58 194.19,194.78 194.59,193.98 194.19,193.18 192.99,192.38"/>
    </edge>
    <edge id=":1563324324_0" function="internal">
        <lane id=":1563324324_0_0" index="0" disallow="tram rail_urban rail rail_electric rail_fast ship" speed="6.74" length="9.32" shape="105.90,53.22 105.49,55.65 104.36,57.42 102.51,58.52 99.94,58.97"/>
    </edge>
    <edge id=":1563324324_1" function="internal">
        <lane id=":1563324324_1_0" index="0" disallow="tram rail_urban rail rail_electric rail_fast ship" speed="27.78" length="14.41" shape="105.90,53.22 105.67,67.63"/>
    </edge>
    <edge id=":1563324324_2" function="internal">
        <lane id=":1563324324_2_0" index="0" disallow="tram rail_urban rail rail_electric rail_fast ship" speed="3.65" length="2.34" shape="105.90,53.22 106.68,54.44 107.47,54.85"/>
    </edge>
    <edge id=":1563324324_9" function="internal">
        <lane id=":1563324324_9_0" index="0" disallow="tram rail_urban rail rail_electric rail_fast ship" speed="3.65" length="2.34" shape="107.47,54.85 108.28,54.46 109.10,53.28"/>
    </edge>
    <edge id=":1563324324_3" function="internal">
        <lane id=":1563324324_3_0" index="0" disallow="tram rail_urban rail rail_electric rail_fast ship" speed="27.78" length="14.40" shape="108.87,67.67 109.10,53.28"/>
    </edge>
    <edge id=":1563324324_4" function="internal">
        <lane id=":1563324324_4_0" index="0" disallow="tram rail_urban rail rail_electric rail_fast ship" speed="7.90" length="5.93" shape="108.87,67.67 108.36,63.73 107.36,62.06"/>
    </edge>
    <edge id=":1563324324_5" function="internal">
        <lane id=":1563324324_5_0" index="0" disallow="tram rail_urban rail rail_electric rail_fast ship" speed="3.65" length="2.34" shape="108.87,67.67 108.09,66.46 107.30,66.05"/>
    </edge>
    <edge id=":1563324324_10" function="internal">
        <lane id=":1563324324_10_0" index="0" disallow="tram rail_urban rail rail_electric rail_fast ship" speed="7.90" length="8.48" shape="107.36,62.06 106.71,60.96 103.90,59.38 99.94,58.97"/>
    </edge>
    <edge id=":1563324324_11" function="internal">
        <lane id=":1563324324_11_0" index="0" disallow="tram rail_urban rail rail_electric rail_fast ship" speed="3.65" length="2.34" shape="107.30,66.05 106.49,66.44 105.67,67.63"/>
    </edge>
    <edge id=":1563324324_6" function="internal">
        <lane id=":1563324324_6_0" index="0" disallow="tram rail_urban rail rail_electric rail_fast ship" speed="6.39" length="9.04" shape="100.07,62.17 102.55,62.42 104.31,63.42 105.35,65.15 105.67,67.63"/>
    </edge>
    <edge id=":1563324324_7" function="internal">
        <lane id=":1563324324_7_0" index="0" disallow="tram rail_urban rail rail_electric rail_fast ship" speed="8.19" length="14.27" shape="100.07,62.17 103.97,61.48 106.77,59.77 108.48,57.03 109.10,53.28"/>
    </edge>
    <edge id=":1563324324_8" function="internal">
        <lane id=":1563324324_8_0" index="0" disallow="tram rail_urban rail rail_electric rail_fast ship" speed="3.65" length="4.67" shape="100.07,62.17 101.24,61.32 101.60,60.51 101.17,59.72 99.94,58.97"/>
    </edge>
    <edge id=":1563324327_0" function="internal">
        <lane id=":1563324327_0_0" index="0" disallow="tram rail_urban rail rail_electric rail_fast ship" speed="3.65" length="4.67" shape="30.26,136.09 28.96,136.73 28.45,137.46 28.74,138.31 29.82,139.27"/>
    </edge>
    <edge id=":1563324336_0" function="internal">
        <lane id=":1563324336_0_0" index="0" disallow="tram rail_urban rail rail_electric rail_fast ship" speed="6.20" length="9.05" shape="104.79,129.15 104.39,131.65 103.28,133.31 101.46,134.10 98.92,134.04"/>
    </edge>
    <edge id=":1563324336_1" function="internal">
        <lane id=":1563324336_1_0" index="0" disallow="tram rail_urban rail rail_electric rail_fast ship" speed="27.78" length="14.50" shape="104.79,129.15 104.43,143.65"/>
    </edge>
    <edge id=":1563324336_2" function="internal">
        <lane id=":1563324336_2_0" index="0" disallow="tram rail_urban rail rail_electric rail_fast ship" speed="3.65" length="2.34" shape="104.79,129.15 105.57,130.36 106.37,130.77"/>
    </edge>
    <edge id=":1563324336_9" function="internal">
        <lane id=":1563324336_9_0" index="0" disallow="tram rail_urban rail rail_electric rail_fast ship" speed="3.65" length="2.34" shape="106.37,130.77 107.17,130.38 107.99,129.20"/>
    </edge>
    <edge id=":1563324336_3" function="internal">
        <lane id=":1563324336_3_0" index="0" disallow="tram rail_urban rail rail_electric rail_fast ship" speed="27.78" length="14.57" shape="107.63,143.76 107.99,129.20"/>
    </edge>
    <edge id=":1563324336_4" function="internal">
        <lane id=":1563324336_4_0" index="0" disallow="tram rail_urban rail rail_electric rail_fast ship" speed="8.48" length="5.82" shape="107.63,143.76 107.20,140.08 106.17,138.23"/>
    </edge>
    <edge id=":1563324336_5" function="internal">
        <lane id=":1563324336_5_0" index="0" disallow="tram rail_urban rail rail_electric rail_fast ship" speed="3.65" length="2.34" shape="107.63,143.76 106.87,142.54 106.09,142.11"/>
    </edge>
    <edge id=":1563324336_10" function="internal">
        <lane id=":1563324336_10_0" index="0" disallow="tram rail_urban rail rail_electric rail_fast ship" speed="8.48" length="8.66" shape="106.17,138.23 105.60,137.23 102.85,135.22 98.92,134.04"/>
    </edge>
    <edge id=":1563324336_11" function="internal">
        <lane id=":1563324336_11_0" index="0" disallow="tram rail_urban rail rail_electric rail_fast ship" speed="3.65" length="2.34" shape="106.09,142.11 105.28,142.48 104.43,143.65"/>
    </edge>
    <edge id=":1563324336_6" function="internal">
        <lane id=":1563324336_6_0" index="0" disallow="tram rail_urban rail rail_electric rail_fast ship" speed="7.08" length="9.80" shape="98.39,137.20 101.11,137.99 103.02,139.33 104.13,141.22 104.43,143.65"/>
    </edge>
    <edge id=":1563324336_7" function="internal">
        <lane id=":1563324336_7_0" index="0" disallow="tram rail_urban rail rail_electric rail_fast ship" speed="7.75" length="14.80" shape="98.39,137.20 102.54,137.29 105.52,135.99 107.34,133.29 107.99,129.20"/>
    </edge>
    <edge id=":1563324336_8" function="internal">
        <lane id=":1563324336_8_0" index="0" disallow="tram rail_urban rail rail_electric rail_fast ship" speed="3.65" length="4.67" shape="98.39,137.20 99.71,136.61 100.24,135.89 99.98,135.03 98.92,134.04"/>
    </edge>
    <edge id=":1563324343_0" function="internal">
        <lane id=":1563324343_0_0" index="0" disallow="tram rail_urban rail rail_electric rail_fast ship" speed="27.78" length="13.18" shape="66.31,216.44 62.85,216.29 59.74,215.96 56.67,215.39 53.32,214.49"/>
    </edge>
    <edge id=":1563324343_1" function="internal">
        <lane id=":1563324343_1_0" index="0" disallow="tram rail_urban rail rail_electric rail_fast ship" speed="7.88" length="5.52" shape="66.31,216.44 62.34,216.91 61.03,217.68"/>
    </edge>
    <edge id=":1563324343_2" function="internal">
        <lane id=":1563324343_2_0" index="0" disallow="tram rail_urban rail rail_electric rail_fast ship" speed="3.65" length="2.34" shape="66.31,216.44 65.09,217.21 64.67,218.00"/>
    </edge>
    <edge id=":1563324343_9" function="internal">
        <lane id=":1563324343_9_0" index="0" disallow="tram rail_urban rail rail_electric rail_fast ship" speed="7.88" length="8.93" shape="61.03,217.68 59.56,218.55 57.97,221.35 57.56,225.33"/>
    </edge>
    <edge id=":1563324343_10" function="internal">
        <lane id=":1563324343_10_0" index="0" disallow="tram rail_urban rail rail_electric rail_fast ship" speed="3.65" length="2.34" shape="64.67,218.00 65.05,218.81 66.23,219.64"/>
    </edge>
    <edge id=":1563324343_3" function="internal">
        <lane id=":1563324343_3_0" index="0" disallow="tram rail_urban rail rail_electric rail_fast ship" speed="6.37" length="9.04" shape="60.76,225.20 61.01,222.71 62.01,220.96 63.75,219.93 66.23,219.64"/>
    </edge>
    <edge id=":1563324343_4" function="internal">
        <lane id=":1563324343_4_0" index="0" disallow="tram rail_urban rail rail_electric rail_fast ship" speed="9.15" length="13.99" shape="60.76,225.20 60.16,221.32 58.72,218.25 56.44,215.97 53.32,214.49"/>
    </edge>
    <edge id=":1563324343_5" function="internal">
        <lane id=":1563324343_5_0" index="0" disallow="tram rail_urban rail rail_electric rail_fast ship" speed="3.65" length="4.67" shape="60.76,225.20 59.91,224.03 59.09,223.67 58.31,224.10 57.56,225.33"/>
    </edge>
    <edge id=":1563324343_6" function="internal">
        <lane id=":1563324343_6_0" index="0" disallow="tram rail_urban rail rail_electric rail_fast ship" speed="7.82" length="10.02" shape="52.39,217.55 54.55,218.60 56.14,220.25 57.14,222.49 57.56,225.33"/>
    </edge>
    <edge id=":1563324343_7" function="internal">
        <lane id=":1563324343_7_0" index="0" disallow="tram rail_urban rail rail_electric rail_fast ship" speed="27.78" length="14.04" shape="52.39,217.55 55.87,218.48 59.23,219.09 62.63,219.46 66.23,219.64"/>
    </edge>
    <edge id=":1563324343_8" function="internal">
        <lane id=":1563324343_8_0" index="0" disallow="tram rail_urban rail rail_electric rail_fast ship" speed="3.65" length="2.34" shape="52.39,217.55 53.77,217.14 54.39,216.49"/>
    </edge>
    <edge id=":1563324343_11" function="internal">
        <lane id=":1563324343_11_0" index="0" disallow="tram rail_urban rail rail_electric rail_fast ship" speed="3.65" length="2.34" shape="54.39,216.49 54.24,215.61 53.32,214.49"/>
    </edge>
    <edge id=":1563324344_0" function="internal">
        <lane id=":1563324344_0_0" index="0" disallow="tram rail_urban rail rail_electric rail_fast ship" speed="6.98" length="9.34" shape="58.34,166.96 58.01,169.54 57.02,171.50 55.36,172.83 53.05,173.54"/>
    </edge>
    <edge id=":1563324344_1" function="internal">
        <lane id=":1563324344_1_0" index="0" disallow="tram rail_urban rail rail_electric rail_fast ship" speed="8.00" length="14.13" shape="58.34,166.96 58.89,170.79 60.53,173.54 63.26,175.19 67.09,175.76"/>
    </edge>
    <edge id=":1563324344_2" function="internal">
        <lane id=":1563324344_2_0" index="0" disallow="tram rail_urban rail rail_electric rail_fast ship" speed="3.65" length="4.67" shape="58.34,166.96 59.14,168.16 59.94,168.56 60.74,168.16 61.54,166.96"/>
    </edge>
    <edge id=":1563324344_3" function="internal">
        <lane id=":1563324344_3_0" index="0" disallow="tram rail_urban rail rail_electric rail_fast ship" speed="6.51" length="8.99" shape="67.11,172.56 64.67,172.20 62.93,171.14 61.89,169.40 61.54,166.96"/>
    </edge>
    <edge id=":1563324344_4" function="internal">
        <lane id=":1563324344_4_0" index="0" disallow="tram rail_urban rail rail_electric rail_fast ship" speed="27.78" length="14.11" shape="67.11,172.56 63.50,172.60 60.06,172.76 56.63,173.07 53.05,173.54"/>
    </edge>
    <edge id=":1563324344_5" function="internal">
        <lane id=":1563324344_5_0" index="0" disallow="tram rail_urban rail rail_electric rail_fast ship" speed="3.65" length="2.34" shape="67.11,172.56 65.90,173.35 65.50,174.15"/>
    </edge>
    <edge id=":1563324344_9" function="internal">
        <lane id=":1563324344_9_0" index="0" disallow="tram rail_urban rail rail_electric rail_fast ship" speed="3.65" length="2.34" shape="65.50,174.15 65.90,174.95 67.09,175.76"/>
    </edge>
    <edge id=":1563324344_6" function="internal">
        <lane id=":1563324344_6_0" index="0" disallow="tram rail_urban rail rail_electric rail_fast ship" speed="27.78" length="13.62" shape="53.52,176.71 57.03,176.24 60.29,175.94 63.56,175.79 67.09,175.76"/>
    </edge>
    <edge id=":1563324344_7" function="internal">
        <lane id=":1563324344_7_0" index="0" disallow="tram rail_urban rail rail_electric rail_fast ship" speed="8.40" length="5.49" shape="53.52,176.71 57.03,175.64 58.46,174.51"/>
    </edge>
    <edge id=":1563324344_8" function="internal">
        <lane id=":1563324344_8_0" index="0" disallow="tram rail_urban rail rail_electric rail_fast ship" speed="3.65" length="2.34" shape="53.52,176.71 54.59,175.74 54.87,174.89"/>
    </edge>
    <edge id=":1563324344_10" function="internal">
        <lane id=":1563324344_10_0" index="0" disallow="tram rail_urban rail rail_electric rail_fast ship" speed="8.40" length="8.47" shape="58.46,174.51 59.54,173.67 61.04,170.77 61.54,166.96"/>
    </edge>
    <edge id=":1563324344_11" function="internal">
        <lane id=":1563324344_11_0" index="0" disallow="tram rail_urban rail rail_electric rail_fast ship" speed="3.65" length="2.34" shape="54.87,174.89 54.35,174.16 53.05,173.54"/>
    </edge>
    <edge id=":1563324348_0" function="internal">
        <lane id=":1563324348_0_0" index="0" disallow="tram rail_urban rail rail_electric rail_fast ship" speed="6.81" length="9.42" shape="104.51,253.65 104.09,256.07 102.94,257.84 101.06,258.97 98.44,259.45"/>
    </edge>
    <edge id=":1563324348_1" function="internal">
        <lane id=":1563324348_1_0" index="0" disallow="tram rail_urban rail rail_electric rail_fast ship" speed="27.78" length="14.42" shape="104.51,253.65 104.20,268.06"/>
    </edge>
    <edge id=":1563324348_2" function="internal">
        <lane id=":1563324348_2_0" index="0" disallow="tram rail_urban rail rail_electric rail_fast ship" speed="3.65" length="2.34" shape="104.51,253.65 105.29,254.86 106.08,255.28"/>
    </edge>
    <edge id=":1563324348_9" function="internal">
        <lane id=":1563324348_9_0" index="0" disallow="tram rail_urban rail rail_electric rail_fast ship" speed="3.65" length="2.34" shape="106.08,255.28 106.89,254.89 107.71,253.71"/>
    </edge>
    <edge id=":1563324348_3" function="internal">
        <lane id=":1563324348_3_0" index="0" disallow="tram rail_urban rail rail_electric rail_fast ship" speed="27.78" length="14.43" shape="107.40,268.14 107.71,253.71"/>
    </edge>
    <edge id=":1563324348_4" function="internal">
        <lane id=":1563324348_4_0" index="0" disallow="tram rail_urban rail rail_electric rail_fast ship" speed="7.87" length="5.96" shape="107.40,268.14 106.92,264.15 105.92,262.48"/>
    </edge>
    <edge id=":1563324348_5" function="internal">
        <lane id=":1563324348_5_0" index="0" disallow="tram rail_urban rail rail_electric rail_fast ship" speed="3.65" length="2.34" shape="107.40,268.14 106.63,266.92 105.84,266.50"/>
    </edge>
    <edge id=":1563324348_10" function="internal">
        <lane id=":1563324348_10_0" index="0" disallow="tram rail_urban rail rail_electric rail_fast ship" speed="7.87" length="8.53" shape="105.92,262.48 105.27,261.38 102.44,259.81 98.44,259.45"/>
    </edge>
    <edge id=":1563324348_11" function="internal">
        <lane id=":1563324348_11_0" index="0" disallow="tram rail_urban rail rail_electric rail_fast ship" speed="3.65" length="2.34" shape="105.84,266.50 105.03,266.88 104.20,268.06"/>
    </edge>
    <edge id=":1563324348_6" function="internal">
        <lane id=":1563324348_6_0" index="0" disallow="tram rail_urban rail rail_electric rail_fast ship" speed="6.35" length="9.04" shape="98.61,262.64 101.11,262.87 102.87,263.85 103.90,265.58 104.20,268.06"/>
    </edge>
    <edge id=":1563324348_7" function="internal">
        <lane id=":1563324348_7_0" index="0" disallow="tram rail_urban rail rail_electric rail_fast ship" speed="8.25" length="14.31" shape="98.61,262.64 102.53,261.91 105.35,260.17 107.08,257.44 107.71,253.71"/>
    </edge>
    <edge id=":1563324348_8" function="internal">
        <lane id=":1563324348_8_0" index="0" disallow="tram rail_urban rail rail_electric rail_fast ship" speed="3.65" length="4.67" shape="98.61,262.64 99.77,261.78 100.13,260.96 99.68,260.18 98.44,259.45"/>
    </edge>
    <edge id=":1563324349_0" function="internal">
        <lane id=":1563324349_0_0" index="0" disallow="tram rail_urban rail rail_electric rail_fast ship" speed="5.43" length="9.14" shape="69.06,271.56 66.71,273.37 64.96,273.68 63.81,272.49 63.24,269.80"/>
    </edge>
    <edge id=":1563324349_1" function="internal">
        <lane id=":1563324349_1_0" index="0" disallow="tram rail_urban rail rail_electric rail_fast ship" speed="17.68" length="18.05" shape="69.06,271.56 66.29,274.76 63.63,278.77 61.44,283.04 60.08,287.03"/>
    </edge>
    <edge id=":1563324349_2" function="internal">
        <lane id=":1563324349_2_0" index="0" disallow="tram rail_urban rail rail_electric rail_fast ship" speed="3.67" length="4.76" shape="69.06,271.56 69.03,273.03 69.46,273.83 70.36,273.97 71.73,273.43"/>
    </edge>
    <edge id=":1563324349_3" function="internal">
        <lane id=":1563324349_3_0" index="0" disallow="tram rail_urban rail rail_electric rail_fast ship" speed="17.07" length="16.82" shape="63.21,287.72 64.49,283.92 66.53,280.05 69.04,276.45 71.73,273.43"/>
    </edge>
    <edge id=":1563324349_4" function="internal">
        <lane id=":1563324349_4_0" index="0" disallow="tram rail_urban rail rail_electric rail_fast ship" speed="27.78" length="17.97" shape="63.21,287.72 63.73,283.56 63.78,278.80 63.55,274.02 63.24,269.80"/>
    </edge>
    <edge id=":1563324349_5" function="internal">
        <lane id=":1563324349_5_0" index="0" disallow="tram rail_urban rail rail_electric rail_fast ship" speed="3.65" length="2.49" shape="63.21,287.72 62.69,286.37 61.99,285.81 61.85,285.85"/>
    </edge>
    <edge id=":1563324349_9" function="internal">
        <lane id=":1563324349_9_0" index="0" disallow="tram rail_urban rail rail_electric rail_fast ship" speed="3.65" length="2.18" shape="61.85,285.85 61.13,286.03 60.08,287.03"/>
    </edge>
    <edge id=":1563324349_6" function="internal">
        <lane id=":1563324349_6_0" index="0" disallow="tram rail_urban rail rail_electric rail_fast ship" speed="27.78" length="17.03" shape="60.05,270.05 60.37,274.12 60.62,278.58 60.59,283.01 60.08,287.03"/>
    </edge>
    <edge id=":1563324349_7" function="internal">
        <lane id=":1563324349_7_0" index="0" disallow="tram rail_urban rail rail_electric rail_fast ship" speed="7.39" length="6.69" shape="60.05,270.05 61.18,275.38 62.06,276.26"/>
    </edge>
    <edge id=":1563324349_8" function="internal">
        <lane id=":1563324349_8_0" index="0" disallow="tram rail_urban rail rail_electric rail_fast ship" speed="3.65" length="2.34" shape="60.05,270.05 60.94,271.18 61.77,271.52"/>
    </edge>
    <edge id=":1563324349_10" function="internal">
        <lane id=":1563324349_10_0" index="0" disallow="tram rail_urban rail rail_electric rail_fast ship" speed="7.39" length="11.58" shape="62.06,276.26 63.50,277.72 67.02,277.07 71.73,273.43"/>
    </edge>
    <edge id=":1563324349_11" function="internal">
        <lane id=":1563324349_11_0" index="0" disallow="tram rail_urban rail rail_electric rail_fast ship" speed="3.65" length="2.34" shape="61.77,271.52 62.54,271.06 63.24,269.80"/>
    </edge>
    <edge id=":1563324353_0" function="internal">
        <lane id=":1563324353_0_0" index="0" disallow="tram rail_urban rail rail_electric rail_fast ship" speed="3.65" length="4.67" shape="29.83,246.92 28.53,247.56 28.03,248.30 28.33,249.15 29.41,250.10"/>
    </edge>
    <edge id=":1563324357_0" function="internal">
        <lane id=":1563324357_0_0" index="0" disallow="tram rail_urban rail rail_electric rail_fast ship" speed="27.78" length="14.34" shape="62.40,258.97 61.57,244.66"/>
    </edge>
    <edge id=":1563324357_1" function="internal">
        <lane id=":1563324357_1_0" index="0" disallow="tram rail_urban rail rail_electric rail_fast ship" speed="8.75" length="5.47" shape="62.40,258.97 61.57,255.46 60.51,253.94"/>
    </edge>
    <edge id=":1563324357_2" function="internal">
        <lane id=":1563324357_2_0" index="0" disallow="tram rail_urban rail rail_electric rail_fast ship" speed="3.65" length="2.34" shape="62.40,258.97 61.51,257.84 60.69,257.50"/>
    </edge>
    <edge id=":1563324357_9" function="internal">
        <lane id=":1563324357_9_0" index="0" disallow="tram rail_urban rail rail_electric rail_fast ship" speed="8.75" length="9.00" shape="60.51,253.94 59.69,252.77 56.76,250.93 52.77,249.92"/>
    </edge>
    <edge id=":1563324357_10" function="internal">
        <lane id=":1563324357_10_0" index="0" disallow="tram rail_urban rail rail_electric rail_fast ship" speed="3.65" length="2.34" shape="60.69,257.50 59.92,257.96 59.21,259.22"/>
    </edge>
    <edge id=":1563324357_3" function="internal">