<?xml version="1.0" encoding="UTF-8"?>

<!-- generated on Monday 09 March 2020 01:12:01 PM IST by Eclipse SUMO netedit Version 1.2.0
<configuration xmlns:xsi="http://www.w3.org/2001/XMLSchema-instance" xsi:noNamespaceSchemaLocation="http://sumo.dlr.de/xsd/netconvertConfiguration.xsd">

    <output>
        <output-file value="/home/armslab/Desktop/networks_SUMO/Circle/circle.net.xml"/>
    </output>

    <processing>
        <offset.disable-normalization value="true"/>
    </processing>

    <junctions>
        <no-turnarounds value="true"/>
    </junctions>

</configuration>
-->

<net version="1.1" junctionCornerDetail="5" limitTurnSpeed="5.50" xmlns:xsi="http://www.w3.org/2001/XMLSchema-instance" xsi:noNamespaceSchemaLocation="http://sumo.dlr.de/xsd/net_file.xsd">

    <location netOffset="0.00,0.00" convBoundary="0.00,-200.00,401.75,200.00" origBoundary="10000000000.00,10000000000.00,-10000000000.00,-10000000000.00" projParameter="!"/>

    <edge id=":gneJ10_0" function="internal">
        <lane id=":gneJ10_0_0" index="0" speed="4.39" length="1.37" width="3.50" shape="101.45,-198.25 101.10,-198.22 100.78,-198.12 100.48,-197.96 100.21,-197.74"/>
    </edge>
    <edge id=":gneJ10_1" function="internal">
        <lane id=":gneJ10_1_0" index="0" speed="3.82" length="2.13" width="3.50" shape="101.45,-198.25 100.14,-199.12 99.89,-199.62"/>
    </edge>
    <edge id=":gneJ10_4" function="internal">
        <lane id=":gneJ10_4_0" index="0" speed="3.82" length="2.98" width="3.50" shape="99.89,-199.62 99.70,-200.00 100.14,-200.88 101.45,-201.75"/>
    </edge>
    <edge id=":gneJ10_2" function="internal">
        <lane id=":gneJ10_2_0" index="0" speed="6.94" length="4.12" width="3.50" shape="97.74,-200.21 98.55,-200.89 99.43,-201.37 100.40,-201.65 101.45,-201.75"/>
    </edge>
    <edge id=":gneJ10_3" function="internal">
        <lane id=":gneJ10_3_0" index="0" speed="3.82" length="2.98" width="3.50" shape="97.74,-200.21 99.28,-200.52 100.21,-200.21 100.35,-199.81"/>
    </edge>
    <edge id=":gneJ10_5" function="internal">
        <lane id=":gneJ10_5_0" index="0" speed="3.82" length="2.13" width="3.50" shape="100.35,-199.81 100.52,-199.28 100.21,-197.74"/>
    </edge>
    <edge id=":gneJ11_0" function="internal">
        <lane id=":gneJ11_0_0" index="0" speed="6.99" length="4.20" width="3.50" shape="-1.75,-98.55 -1.71,-99.78 -1.51,-100.63 -1.05,-101.37 -0.21,-102.26"/>
    </edge>
    <edge id=":gneJ11_1" function="internal">
        <lane id=":gneJ11_1_0" index="0" speed="3.82" length="2.98" width="3.50" shape="-1.75,-98.55 -0.88,-99.86 0.00,-100.30 0.38,-100.11"/>
    </edge>
    <edge id=":gneJ11_4" function="internal">
        <lane id=":gneJ11_4_0" index="0" speed="3.82" length="2.13" width="3.50" shape="0.38,-100.11 0.88,-99.86 1.75,-98.55"/>
    </edge>
    <edge id=":gneJ11_2" function="internal">
        <lane id=":gneJ11_2_0" index="0" speed="4.39" length="1.37" width="3.50" shape="2.26,-99.79 2.04,-99.52 1.88,-99.22 1.78,-98.90 1.75,-98.55"/>
    </edge>
    <edge id=":gneJ11_3" function="internal">
        <lane id=":gneJ11_3_0" index="0" speed="3.82" length="2.26" width="3.50" shape="2.26,-99.79 0.72,-99.48 0.07,-99.69"/>
    </edge>
    <edge id=":gneJ11_5" function="internal">
        <lane id=":gneJ11_5_0" index="0" speed="3.82" length="2.85" width="3.50" shape="0.07,-99.69 -0.21,-99.79 -0.52,-100.72 -0.21,-102.26"/>
    </edge>
    <edge id=":gneJ12_0" function="internal">
        <lane id=":gneJ12_0_0" index="0" speed="11.00" length="0.10" width="3.50" shape="-1.75,0.00 -1.75,0.00"/>
    </edge>
    <edge id=":gneJ12_1" function="internal">
        <lane id=":gneJ12_1_0" index="0" speed="3.82" length="2.56" width="3.50" shape="-1.75,0.00 -0.88,-1.31 0.00,-1.75"/>
    </edge>
    <edge id=":gneJ12_4" function="internal">
        <lane id=":gneJ12_4_0" index="0" speed="3.82" length="2.56" width="3.50" shape="0.00,-1.75 0.88,-1.31 1.75,0.00"/>
    </edge>
    <edge id=":gneJ12_2" function="internal">
        <lane id=":gneJ12_2_0" index="0" speed="11.00" length="0.10" width="3.50" shape="1.75,0.00 1.75,0.00"/>
    </edge>
    <edge id=":gneJ12_3" function="internal">
        <lane id=":gneJ12_3_0" index="0" speed="3.82" length="2.56" width="3.50" shape="1.75,0.00 0.88,1.31 0.00,1.75"/>
    </edge>
    <edge id=":gneJ12_5" function="internal">
        <lane id=":gneJ12_5_0" index="0" speed="3.82" length="2.56" width="3.50" shape="0.00,1.75 -0.88,1.31 -1.75,0.00"/>
    </edge>
    <edge id=":gneJ13_0" function="internal">
        <lane id=":gneJ13_0_0" index="0" speed="6.94" length="4.12" width="3.50" shape="-0.21,102.26 -0.89,101.45 -1.37,100.57 -1.65,99.60 -1.75,98.55"/>
    </edge>
    <edge id=":gneJ13_1" function="internal">
        <lane id=":gneJ13_1_0" index="0" speed="3.82" length="3.09" width="3.50" shape="-0.21,102.26 -0.52,100.72 -0.21,99.79 0.30,99.62"/>
    </edge>
    <edge id=":gneJ13_4" function="internal">
        <lane id=":gneJ13_4_0" index="0" speed="3.82" length="2.02" width="3.50" shape="0.30,99.62 0.72,99.48 2.26,99.79"/>
    </edge>
    <edge id=":gneJ13_2" function="internal">
        <lane id=":gneJ13_2_0" index="0" speed="4.35" length="1.34" width="3.50" shape="1.75,98.55 2.26,99.79"/>
    </edge>
    <edge id=":gneJ13_3" function="internal">
        <lane id=":gneJ13_3_0" index="0" speed="3.82" length="2.13" width="3.50" shape="1.75,98.55 0.88,99.86 0.38,100.11"/>
    </edge>
    <edge id=":gneJ13_5" function="internal">
        <lane id=":gneJ13_5_0" index="0" speed="3.82" length="2.98" width="3.50" shape="0.38,100.11 0.00,100.30 -0.88,99.86 -1.75,98.55"/>
    </edge>
    <edge id=":gneJ2_0" function="internal">
        <lane id=":gneJ2_0_0" index="0" speed="6.94" length="4.12" width="3.50" shape="101.45,201.75 100.40,201.65 99.43,201.37 98.55,200.89 97.74,200.21"/>
    </edge>
    <edge id=":gneJ2_1" function="internal">
        <lane id=":gneJ2_1_0" index="0" speed="3.82" length="2.98" width="3.50" shape="101.45,201.75 100.14,200.88 99.70,200.00 99.89,199.62"/>
    </edge>
    <edge id=":gneJ2_4" function="internal">
        <lane id=":gneJ2_4_0" index="0" speed="3.82" length="2.13" width="3.50" shape="99.89,199.62 100.14,199.12 101.45,198.25"/>
    </edge>
    <edge id=":gneJ2_2" function="internal">
        <lane id=":gneJ2_2_0" index="0" speed="4.39" length="1.37" width="3.50" shape="100.21,197.74 100.48,197.96 100.78,198.12 101.10,198.22 101.45,198.25"/>
    </edge>
    <edge id=":gneJ2_3" function="internal">
        <lane id=":gneJ2_3_0" index="0" speed="3.82" length="2.13" width="3.50" shape="100.21,197.74 100.52,199.28 100.35,199.81"/>
    </edge>
    <edge id=":gneJ2_5" function="internal">
        <lane id=":gneJ2_5_0" index="0" speed="3.82" length="2.98" width="3.50" shape="100.35,199.81 100.21,200.21 99.28,200.52 97.74,200.21"/>
    </edge>
    <edge id=":gneJ3_0" function="internal">
        <lane id=":gneJ3_0_0" index="0" speed="11.00" length="0.10" width="3.50" shape="200.00,201.75 200.00,201.75"/>
    </edge>
    <edge id=":gneJ3_1" function="internal">
        <lane id=":gneJ3_1_0" index="0" speed="3.82" length="2.56" width="3.50" shape="200.00,201.75 198.69,200.88 198.25,200.00"/>
    </edge>
    <edge id=":gneJ3_4" function="internal">
        <lane id=":gneJ3_4_0" index="0" speed="3.82" length="2.56" width="3.50" shape="198.25,200.00 198.69,199.12 200.00,198.25"/>
    </edge>
    <edge id=":gneJ3_2" function="internal">
        <lane id=":gneJ3_2_0" index="0" speed="11.00" length="0.10" width="3.50" shape="200.00,198.25 200.00,198.25"/>
    </edge>
    <edge id=":gneJ3_3" function="internal">
        <lane id=":gneJ3_3_0" index="0" speed="3.82" length="2.56" width="3.50" shape="200.00,198.25 201.31,199.12 201.75,200.00"/>
    </edge>
    <edge id=":gneJ3_5" function="internal">
        <lane id=":gneJ3_5_0" index="0" speed="3.82" length="2.56" width="3.50" shape="201.75,200.00 201.31,200.88 200.00,201.75"/>
    </edge>
    <edge id=":gneJ4_0" function="internal">
        <lane id=":gneJ4_0_0" index="0" speed="6.94" length="4.12" width="3.50" shape="302.26,200.21 301.45,200.89 300.57,201.37 299.60,201.65 298.55,201.75"/>
    </edge>
    <edge id=":gneJ4_1" function="internal">
        <lane id=":gneJ4_1_0" index="0" speed="3.82" length="2.98" width="3.50" shape="302.26,200.21 300.72,200.52 299.79,200.21 299.65,199.81"/>
    </edge>
    <edge id=":gneJ4_4" function="internal">
        <lane id=":gneJ4_4_0" index="0" speed="3.82" length="2.13" width="3.50" shape="299.65,199.81 299.48,199.28 299.79,197.74"/>
    </edge>
    <edge id=":gneJ4_2" function="internal">
        <lane id=":gneJ4_2_0" index="0" speed="4.39" length="1.37" width="3.50" shape="298.55,198.25 298.90,198.22 299.22,198.12 299.52,197.96 299.79,197.74"/>
    </edge>
    <edge id=":gneJ4_3" function="internal">
        <lane id=":gneJ4_3_0" index="0" speed="3.82" length="2.13" width="3.50" shape="298.55,198.25 299.86,199.12 300.11,199.62"/>
    </edge>
    <edge id=":gneJ4_5" function="internal">
        <lane id=":gneJ4_5_0" index="0" speed="3.82" length="2.98" width="3.50" shape="300.11,199.62 300.30,200.00 299.86,200.88 298.55,201.75"/>
    </edge>
    <edge id=":gneJ5_0" function="internal">
        <lane id=":gneJ5_0_0" index="0" speed="6.94" length="4.12" width="3.50" shape="401.75,98.55 401.65,99.60 401.37,100.57 400.89,101.45 400.21,102.26"/>
    </edge>
    <edge id=":gneJ5_1" function="internal">
        <lane id=":gneJ5_1_0" index="0" speed="3.82" length="2.98" width="3.50" shape="401.75,98.55 400.88,99.86 400.00,100.30 399.62,100.11"/>
    </edge>
    <edge id=":gneJ5_4" function="internal">
        <lane id=":gneJ5_4_0" index="0" speed="3.82" length="2.13" width="3.50" shape="399.62,100.11 399.12,99.86 398.25,98.55"/>
    </edge>
    <edge id=":gneJ5_2" function="internal">
        <lane id=":gneJ5_2_0" index="0" speed="4.39" length="1.37" width="3.50" shape="397.74,99.79 397.96,99.52 398.12,99.22 398.22,98.90 398.25,98.55"/>
    </edge>
    <edge id=":gneJ5_3" function="internal">
        <lane id=":gneJ5_3_0" index="0" speed="3.82" length="2.13" width="3.50" shape="397.74,99.79 399.28,99.48 399.81,99.65"/>
    </edge>
    <edge id=":gneJ5_5" function="internal">
        <lane id=":gneJ5_5_0" index="0" speed="3.82" length="2.98" width="3.50" shape="399.81,99.65 400.21,99.79 400.52,100.72 400.21,102.26"/>
    </edge>
    <edge id=":gneJ6_0" function="internal">
        <lane id=":gneJ6_0_0" index="0" speed="11.00" length="0.10" width="3.50" shape="398.25,0.00 398.25,0.00"/>
    </edge>
    <edge id=":gneJ6_1" function="internal">
        <lane id=":gneJ6_1_0" index="0" speed="3.82" length="2.56" width="3.50" shape="398.25,0.00 399.12,-1.31 400.00,-1.75"/>
    </edge>
    <edge id=":gneJ6_4" function="internal">
        <lane id=":gneJ6_4_0" index="0" speed="3.82" length="2.56" width="3.50" shape="400.00,-1.75 400.88,-1.31 401.75,0.00"/>
    </edge>
    <edge id=":gneJ6_2" function="internal">
        <lane id=":gneJ6_2_0" index="0" speed="11.00" length="0.10" width="3.50" shape="401.75,0.00 401.75,0.00"/>
    </edge>
    <edge id=":gneJ6_3" function="internal">
        <lane id=":gneJ6_3_0" index="0" speed="3.82" length="2.56" width="3.50" shape="401.75,0.00 400.88,1.31 400.00,1.75"/>
    </edge>
    <edge id=":gneJ6_5" function="internal">
        <lane id=":gneJ6_5_0" index="0" speed="3.82" length="2.56" width="3.50" shape="400.00,1.75 399.12,1.31 398.25,0.00"/>
    </edge>
    <edge id=":gneJ7_0" function="internal">
        <lane id=":gneJ7_0_0" index="0" speed="4.39" length="1.37" width="3.50" shape="398.25,-98.55 398.22,-98.90 398.12,-99.22 397.96,-99.52 397.74,-99.79"/>
    </edge>
    <edge id=":gneJ7_1" function="internal">
        <lane id=":gneJ7_1_0" index="0" speed="3.82" length="2.26" width="3.50" shape="398.25,-98.55 399.12,-99.86 399.74,-100.17"/>
    </edge>
    <edge id=":gneJ7_4" function="internal">
        <lane id=":gneJ7_4_0" index="0" speed="3.82" length="2.85" width="3.50" shape="399.74,-100.17 400.00,-100.30 400.87,-99.86 401.75,-98.55"/>
    </edge>
    <edge id=":gneJ7_2" function="internal">
        <lane id=":gneJ7_2_0" index="0" speed="6.99" length="4.20" width="3.50" shape="400.21,-102.26 401.05,-101.37 401.51,-100.63 401.71,-99.78 401.75,-98.55"/>
    </edge>
    <edge id=":gneJ7_3" function="internal">
        <lane id=":gneJ7_3_0" index="0" speed="3.82" length="2.98" width="3.50" shape="400.21,-102.26 400.52,-100.72 400.21,-99.79 399.81,-99.65"/>
    </edge>
    <edge id=":gneJ7_5" function="internal">
        <lane id=":gneJ7_5_0" index="0" speed="3.82" length="2.13" width="3.50" shape="399.81,-99.65 399.28,-99.48 397.74,-99.79"/>
    </edge>
    <edge id=":gneJ8_0" function="internal">
        <lane id=":gneJ8_0_0" index="0" speed="4.39" length="1.37" width="3.50" shape="299.79,-197.74 299.52,-197.96 299.22,-198.12 298.90,-198.22 298.55,-198.25"/>
    </edge>
    <edge id=":gneJ8_1" function="internal">
        <lane id=":gneJ8_1_0" index="0" speed="3.82" length="2.13" width="3.50" shape="299.79,-197.74 299.48,-199.28 299.65,-199.81"/>
    </edge>
    <edge id=":gneJ8_4" function="internal">
        <lane id=":gneJ8_4_0" index="0" speed="3.82" length="2.98" width="3.50" shape="299.65,-199.81 299.79,-200.21 300.72,-200.52 302.26,-200.21"/>
    </edge>
    <edge id=":gneJ8_2" function="internal">
        <lane id=":gneJ8_2_0" index="0" speed="6.94" length="4.12" width="3.50" shape="298.55,-201.75 299.60,-201.65 300.57,-201.37 301.45,-200.89 302.26,-200.21"/>
    </edge>
    <edge id=":gneJ8_3" function="internal">
        <lane id=":gneJ8_3_0" index="0" speed="3.82" length="2.98" width="3.50" shape="298.55,-201.75 299.86,-200.88 300.30,-200.00 300.11,-199.62"/>
    </edge>
    <edge id=":gneJ8_5" function="internal">
        <lane id=":gneJ8_5_0" index="0" speed="3.82" length="2.13" width="3.50" shape="300.11,-199.62 299.86,-199.12 298.55,-198.25"/>
    </edge>
    <edge id=":gneJ9_0" function="internal">
        <lane id=":gneJ9_0_0" index="0" speed="11.00" length="0.10" width="3.50" shape="200.00,-198.25 200.00,-198.25"/>
    </edge>
    <edge id=":gneJ9_1" function="internal">
        <lane id=":gneJ9_1_0" index="0" speed="3.82" length="2.56" width="3.50" shape="200.00,-198.25 198.69,-199.12 198.25,-200.00"/>
    </edge>
    <edge id=":gneJ9_4" function="internal">
        <lane id=":gneJ9_4_0" index="0" speed="3.82" length="2.56" width="3.50" shape="198.25,-200.00 198.69,-200.88 200.00,-201.75"/>
    </edge>
    <edge id=":gneJ9_2" function="internal">
        <lane id=":gneJ9_2_0" index="0" speed="11.00" length="0.10" width="3.50" shape="200.00,-201.75 200.00,-201.75"/>
    </edge>
    <edge id=":gneJ9_3" function="internal">
        <lane id=":gneJ9_3_0" index="0" speed="3.82" length="2.56" width="3.50" shape="200.00,-201.75 201.31,-200.88 201.75,-200.00"/>
    </edge>
    <edge id=":gneJ9_5" function="internal">
        <lane id=":gneJ9_5_0" index="0" speed="3.82" length="2.56" width="3.50" shape="201.75,-200.00 201.31,-199.12 200.00,-198.25"/>
    </edge>

    <edge id="-gneE1" from="gneJ3" to="gneJ2" priority="-1">
        <lane id="-gneE1_0" index="0" speed="11.00" length="98.55" width="3.50" shape="200.00,201.75 101.45,201.75"/>
    </edge>
    <edge id="-gneE10" from="gneJ12" to="gneJ11" priority="-1">
        <lane id="-gneE10_0" index="0" speed="11.00" length="98.55" width="3.50" shape="-1.75,0.00 -1.75,-98.55"/>
    </edge>
    <edge id="-gneE11" from="gneJ13" to="gneJ12" priority="-1">
        <lane id="-gneE11_0" index="0" speed="11.00" length="98.55" width="3.50" shape="-1.75,98.55 -1.75,0.00"/>
    </edge>
    <edge id="-gneE12" from="gneJ2" to="gneJ13" priority="-1">
        <lane id="-gneE12_0" index="0" speed="11.00" length="138.52" width="3.50" shape="97.74,200.21 -0.21,102.26"/>
    </edge>
    <edge id="-gneE2" from="gneJ4" to="gneJ3" priority="-1">
        <lane id="-gneE2_0" index="0" speed="11.00" length="98.55" width="3.50" shape="298.55,201.75 200.00,201.75"/>
    </edge>
    <edge id="-gneE3" from="gneJ5" to="gneJ4" priority="-1">
        <lane id="-gneE3_0" index="0" speed="11.00" length="138.52" width="3.50" shape="400.21,102.26 302.26,200.21"/>
    </edge>
    <edge id="-gneE4" from="gneJ6" to="gneJ5" priority="-1">
        <lane id="-gneE4_0" index="0" speed="11.00" length="98.55" width="3.50" shape="401.75,0.00 401.75,98.55"/>
    </edge>
    <edge id="-gneE5" from="gneJ7" to="gneJ6" priority="-1" spreadType="center" shape="401.75,-100.03 401.75,0.00">
        <lane id="-gneE5_0" index="0" speed="11.00" length="98.55" width="3.50" shape="401.75,-98.55 401.75,0.00"/>
    </edge>
    <edge id="-gneE6" from="gneJ8" to="gneJ7" priority="-1">
        <lane id="-gneE6_0" index="0" speed="11.00" length="138.52" width="3.50" shape="302.26,-200.21 400.21,-102.26"/>
    </edge>
    <edge id="-gneE7" from="gneJ9" to="gneJ8" priority="-1">
        <lane id="-gneE7_0" index="0" speed="11.00" length="98.55" width="3.50" shape="200.00,-201.75 298.55,-201.75"/>
    </edge>
    <edge id="-gneE8" from="gneJ10" to="gneJ9" priority="-1">
        <lane id="-gneE8_0" index="0" speed="11.00" length="98.55" width="3.50" shape="101.45,-201.75 200.00,-201.75"/>
    </edge>
    <edge id="-gneE9" from="gneJ11" to="gneJ10" priority="-1">
        <lane id="-gneE9_0" index="0" speed="11.00" length="138.52" width="3.50" shape="-0.21,-102.26 97.74,-200.21"/>
    </edge>
    <edge id="gneE1" from="gneJ2" to="gneJ3" priority="-1">
        <lane id="gneE1_0" index="0" speed="11.00" length="98.55" width="3.50" shape="101.45,198.25 200.00,198.25"/>
    </edge>
    <edge id="gneE10" from="gneJ11" to="gneJ12" priority="-1">
        <lane id="gneE10_0" index="0" speed="11.00" length="98.55" width="3.50" shape="1.75,-98.55 1.75,0.00"/>
    </edge>
    <edge id="gneE11" from="gneJ12" to="gneJ13" priority="-1">
        <lane id="gneE11_0" index="0" speed="11.00" length="98.55" width="3.50" shape="1.75,0.00 1.75,98.55"/>
    </edge>
    <edge id="gneE12" from="gneJ13" to="gneJ2" priority="-1">
        <lane id="gneE12_0" index="0" speed="11.00" length="138.52" width="3.50" shape="2.26,99.79 100.21,197.74"/>
    </edge>
    <edge id="gneE2" from="gneJ3" to="gneJ4" priority="-1">
        <lane id="gneE2_0" index="0" speed="11.00" length="98.55" width="3.50" shape="200.00,198.25 298.55,198.25"/>
    </edge>
    <edge id="gneE3" from="gneJ4" to="gneJ5" priority="-1">
        <lane id="gneE3_0" index="0" speed="11.00" length="138.52" width="3.50" shape="299.79,197.74 397.74,99.79"/>
    </edge>
    <edge id="gneE4" from="gneJ5" to="gneJ6" priority="-1">
        <lane id="gneE4_0" index="0" speed="11.00" length="98.55" width="3.50" shape="398.25,98.55 398.25,0.00"/>
    </edge>
    <edge id="gneE5" from="gneJ6" to="gneJ7" priority="-1">
        <lane id="gneE5_0" index="0" speed="11.00" length="98.55" width="3.50" shape="398.25,0.00 398.25,-98.55"/>
    </edge>
    <edge id="gneE6" from="gneJ7" to="gneJ8" priority="-1">
        <lane id="gneE6_0" index="0" speed="11.00" length="138.52" width="3.50" shape="397.74,-99.79 299.79,-197.74"/>
    </edge>
    <edge id="gneE7" from="gneJ8" to="gneJ9" priority="-1">
        <lane id="gneE7_0" index="0" speed="11.00" length="98.55" width="3.50" shape="298.55,-198.25 200.00,-198.25"/>
    </edge>
    <edge id="gneE8" from="gneJ9" to="gneJ10" priority="-1">
        <lane id="gneE8_0" index="0" speed="11.00" length="98.55" width="3.50" shape="200.00,-198.25 101.45,-198.25"/>
    </edge>
    <edge id="gneE9" from="gneJ10" to="gneJ11" priority="-1">
        <lane id="gneE9_0" index="0" speed="11.00" length="138.52" width="3.50" shape="100.21,-197.74 2.26,-99.79"/>
    </edge>

    <junction id="gneJ10" type="priority" x="100.00" y="-200.00" incLanes="gneE8_0 -gneE9_0" intLanes=":gneJ10_0_0 :gneJ10_4_0 :gneJ10_2_0 :gneJ10_5_0" shape="101.45,-196.50 101.45,-203.50 99.61,-203.27 98.76,-202.99 97.96,-202.59 97.21,-202.08 96.50,-201.45">
        <request index="0" response="0000" foes="1000" cont="0"/>
        <request index="1" response="0100" foes="0100" cont="1"/>
        <request index="2" response="0000" foes="0010" cont="0"/>
        <request index="3" response="0001" foes="0001" cont="1"/>
    </junction>
    <junction id="gneJ11" type="priority" x="0.00" y="-100.00" incLanes="-gneE10_0 gneE9_0" intLanes=":gneJ11_0_0 :gneJ11_4_0 :gneJ11_2_0 :gneJ11_5_0" shape="-3.50,-98.55 3.50,-98.55 -1.45,-103.50 -2.59,-102.04 -2.99,-101.24 -3.27,-100.39 -3.44,-99.49">
        <request index="0" response="0000" foes="1000" cont="0"/>
        <request index="1" response="0100" foes="0100" cont="1"/>
        <request index="2" response="0000" foes="0010" cont="0"/>
        <request index="3" response="0001" foes="0001" cont="1"/>
    </junction>
    <junction id="gneJ12" type="priority" x="0.00" y="0.00" incLanes="-gneE11_0 gneE10_0" intLanes=":gneJ12_0_0 :gneJ12_4_0 :gneJ12_2_0 :gneJ12_5_0" shape="-3.50,0.00 3.50,0.00 -3.50,0.00">
        <request index="0" response="0000" foes="1000" cont="0"/>
        <request index="1" response="0100" foes="0100" cont="1"/>
        <request index="2" response="0000" foes="0010" cont="0"/>
        <request index="3" response="0001" foes="0001" cont="1"/>
    </junction>
    <junction id="gneJ13" type="priority" x="0.00" y="100.00" incLanes="-gneE12_0 gneE11_0" intLanes=":gneJ13_0_0 :gneJ13_4_0 :gneJ13_2_0 :gneJ13_5_0" shape="-1.45,103.50 3.50,98.55 -3.50,98.55 -3.39,100.60 -3.19,101.32 -2.82,101.97 -2.26,102.66">
        <request index="0" response="0000" foes="1000" cont="0"/>
        <request index="1" response="0100" foes="0100" cont="1"/>
        <request index="2" response="0000" foes="0010" cont="0"/>
        <request index="3" response="0001" foes="0001" cont="1"/>
    </junction>
    <junction id="gneJ2" type="priority" x="100.00" y="200.00" incLanes="-gneE1_0 gneE12_0" intLanes=":gneJ2_0_0 :gneJ2_4_0 :gneJ2_2_0 :gneJ2_5_0" shape="101.45,203.50 101.45,196.50 96.50,201.45 97.96,202.59 98.76,202.99 99.61,203.27 100.51,203.44">
        <request index="0" response="0000" foes="1000" cont="0"/>
        <request index="1" response="0100" foes="0100" cont="1"/>
        <request index="2" response="0000" foes="0010" cont="0"/>
        <request index="3" response="0001" foes="0001" cont="1"/>
    </junction>
    <junction id="gneJ3" type="priority" x="200.00" y="200.00" incLanes="-gneE2_0 gneE1_0" intLanes=":gneJ3_0_0 :gneJ3_4_0 :gneJ3_2_0 :gneJ3_5_0" shape="200.00,203.50 200.00,196.50 200.00,203.50">
        <request index="0" response="0000" foes="1000" cont="0"/>
        <request index="1" response="0100" foes="0100" cont="1"/>
        <request index="2" response="0000" foes="0010" cont="0"/>
        <request index="3" response="0001" foes="0001" cont="1"/>
    </junction>
    <junction id="gneJ4" type="priority" x="300.00" y="200.00" incLanes="-gneE3_0 gneE2_0" intLanes=":gneJ4_0_0 :gneJ4_4_0 :gneJ4_2_0 :gneJ4_5_0" shape="303.50,201.45 298.55,196.50 298.55,203.50 300.39,203.27 301.24,202.99 302.04,202.59 302.79,202.08">
        <request index="0" response="0000" foes="1000" cont="0"/>
        <request index="1" response="0100" foes="0100" cont="1"/>
        <request index="2" response="0000" foes="0010" cont="0"/>
        <request index="3" response="0001" foes="0001" cont="1"/>
    </junction>
    <junction id="gneJ5" type="priority" x="400.00" y="100.00" incLanes="-gneE4_0 gneE3_0" intLanes=":gneJ5_0_0 :gneJ5_4_0 :gneJ5_2_0 :gneJ5_5_0" shape="403.50,98.55 396.50,98.55 401.45,103.50 402.59,102.04 402.99,101.24 403.27,100.39 403.44,99.49">
        <request index="0" response="0000" foes="1000" cont="0"/>
        <request index="1" response="0100" foes="0100" cont="1"/>
        <request index="2" response="0000" foes="0010" cont="0"/>
        <request index="3" response="0001" foes="0001" cont="1"/>
    </junction>
    <junction id="gneJ6" type="priority" x="400.00" y="0.00" incLanes="gneE4_0 -gneE5_0" intLanes=":gneJ6_0_0 :gneJ6_4_0 :gneJ6_2_0 :gneJ6_5_0" shape="396.50,0.00 403.50,0.00 396.50,-0.00">
        <request index="0" response="0000" foes="1000" cont="0"/>
        <request index="1" response="0100" foes="0100" cont="1"/>
        <request index="2" response="0000" foes="0010" cont="0"/>
        <request index="3" response="0001" foes="0001" cont="1"/>
    </junction>
    <junction id="gneJ7" type="priority" x="400.00" y="-100.00" incLanes="gneE5_0 -gneE6_0" intLanes=":gneJ7_0_0 :gneJ7_4_0 :gneJ7_2_0 :gneJ7_5_0" shape="396.50,-98.55 403.50,-98.55 403.39,-100.60 403.19,-101.32 402.82,-101.97 402.26,-102.66 401.45,-103.50">
        <request index="0" response="0000" foes="1000" cont="0"/>
        <request index="1" response="0100" foes="0100" cont="1"/>
        <request index="2" response="0000" foes="0010" cont="0"/>
        <request index="3" response="0001" foes="0001" cont="1"/>
    </junction>
    <junction id="gneJ8" type="priority" x="300.00" y="-200.00" incLanes="gneE6_0 -gneE7_0" intLanes=":gneJ8_0_0 :gneJ8_4_0 :gneJ8_2_0 :gneJ8_5_0" shape="298.55,-196.50 303.50,-201.45 302.04,-202.59 301.24,-202.99 300.39,-203.27 299.49,-203.44 298.55,-203.50">
        <request index="0" response="0000" foes="1000" cont="0"/>
        <request index="1" response="0100" foes="0100" cont="1"/>
        <request index="2" response="0000" foes="0010" cont="0"/>
        <request index="3" response="0001" foes="0001" cont="1"/>
    </junction>
    <junction id="gneJ9" type="priority" x="200.00" y="-200.00" incLanes="gneE7_0 -gneE8_0" intLanes=":gneJ9_0_0 :gneJ9_4_0 :gneJ9_2_0 :gneJ9_5_0" shape="200.00,-196.50 200.00,-203.50 200.00,-196.50">
        <request index="0" response="0000" foes="1000" cont="0"/>
        <request index="1" response="0100" foes="0100" cont="1"/>
        <request index="2" response="0000" foes="0010" cont="0"/>
        <request index="3" response="0001" foes="0001" cont="1"/>
    </junction>

    <junction id=":gneJ10_4_0" type="internal" x="99.89" y="-199.62" incLanes=":gneJ10_1_0 -gneE9_0" intLanes=":gneJ10_2_0"/>
    <junction id=":gneJ10_5_0" type="internal" x="100.35" y="-199.81" incLanes=":gneJ10_3_0 gneE8_0" intLanes=":gneJ10_0_0"/>
    <junction id=":gneJ11_4_0" type="internal" x="0.38" y="-100.11" incLanes=":gneJ11_1_0 gneE9_0" intLanes=":gneJ11_2_0"/>
    <junction id=":gneJ11_5_0" type="internal" x="0.07" y="-99.69" incLanes=":gneJ11_3_0 -gneE10_0" intLanes=":gneJ11_0_0"/>
    <junction id=":gneJ12_4_0" type="internal" x="0.00" y="-1.75" incLanes=":gneJ12_1_0 gneE10_0" intLanes=":gneJ12_2_0"/>
    <junction id=":gneJ12_5_0" type="internal" x="0.00" y="1.75" incLanes=":gneJ12_3_0 -gneE11_0" intLanes=":gneJ12_0_0"/>
    <junction id=":gneJ13_4_0" type="internal" x="0.30" y="99.62" incLanes=":gneJ13_1_0 gneE11_0" intLanes=":gneJ13_2_0"/>
    <junction id=":gneJ13_5_0" type="internal" x="0.38" y="100.11" incLanes=":gneJ13_3_0 -gneE12_0" intLanes=":gneJ13_0_0"/>
    <junction id=":gneJ2_4_0" type="internal" x="99.89" y="199.62" incLanes=":gneJ2_1_0 gneE12_0" intLanes=":gneJ2_2_0"/>
    <junction id=":gneJ2_5_0" type="internal" x="100.35" y="199.81" incLanes=":gneJ2_3_0 -gneE1_0" intLanes=":gneJ2_0_0"/>
    <junction id=":gneJ3_4_0" type="internal" x="198.25" y="200.00" incLanes=":gneJ3_1_0 gneE1_0" intLanes=":gneJ3_2_0"/>
    <junction id=":gneJ3_5_0" type="internal" x="201.75" y="200.00" incLanes=":gneJ3_3_0 -gneE2_0" intLanes=":gneJ3_0_0"/>
    <junction id=":gneJ4_4_0" type="internal" x="299.65" y="199.81" incLanes=":gneJ4_1_0 gneE2_0" intLanes=":gneJ4_2_0"/>
    <junction id=":gneJ4_5_0" type="internal" x="300.11" y="199.62" incLanes=":gneJ4_3_0 -gneE3_0" intLanes=":gneJ4_0_0"/>
    <junction id=":gneJ5_4_0" type="internal" x="399.62" y="100.11" incLanes=":gneJ5_1_0 gneE3_0" intLanes=":gneJ5_2_0"/>
    <junction id=":gneJ5_5_0" type="internal" x="399.81" y="99.65" incLanes=":gneJ5_3_0 -gneE4_0" intLanes=":gneJ5_0_0"/>
    <junction id=":gneJ6_4_0" type="internal" x="400.00" y="-1.75" incLanes=":gneJ6_1_0 -gneE5_0" intLanes=":gneJ6_2_0"/>
    <junction id=":gneJ6_5_0" type="internal" x="400.00" y="1.75" incLanes=":gneJ6_3_0 gneE4_0" intLanes=":gneJ6_0_0"/>
    <junction id=":gneJ7_4_0" type="internal" x="399.74" y="-100.17" incLanes=":gneJ7_1_0 -gneE6_0" intLanes=":gneJ7_2_0"/>
    <junction id=":gneJ7_5_0" type="internal" x="399.81" y="-99.65" incLanes=":gneJ7_3_0 gneE5_0" intLanes=":gneJ7_0_0"/>
    <junction id=":gneJ8_4_0" type="internal" x="299.65" y="-199.81" incLanes=":gneJ8_1_0 -gneE7_0" intLanes=":gneJ8_2_0"/>
    <junction id=":gneJ8_5_0" type="internal" x="300.11" y="-199.62" incLanes=":gneJ8_3_0 gneE6_0" intLanes=":gneJ8_0_0"/>
    <junction id=":gneJ9_4_0" type="internal" x="198.25" y="-200.00" incLanes=":gneJ9_1_0 -gneE8_0" intLanes=":gneJ9_2_0"/>
    <junction id=":gneJ9_5_0" type="internal" x="201.75" y="-200.00" incLanes=":gneJ9_3_0 gneE7_0" intLanes=":gneJ9_0_0"/>

    <connection from="-gneE1" to="-gneE12" fromLane="0" toLane="0" via=":gneJ2_0_0" dir="l" state="M"/>
    <connection from="-gneE1" to="gneE1" fromLane="0" toLane="0" via=":gneJ2_1_0" dir="t" state="m"/>
    <connection from="-gneE10" to="-gneE9" fromLane="0" toLane="0" via=":gneJ11_0_0" dir="l" state="M"/>
    <connection from="-gneE10" to="gneE10" fromLane="0" toLane="0" via=":gneJ11_1_0" dir="t" state="m"/>
    <connection from="-gneE11" to="-gneE10" fromLane="0" toLane="0" via=":gneJ12_0_0" dir="s" state="M"/>
    <connection from="-gneE11" to="gneE11" fromLane="0" toLane="0" via=":gneJ12_1_0" dir="t" state="m"/>
    <connection from="-gneE12" to="-gneE11" fromLane="0" toLane="0" via=":gneJ13_0_0" dir="l" state="M"/>
    <connection from="-gneE12" to="gneE12" fromLane="0" toLane="0" via=":gneJ13_1_0" dir="t" state="m"/>
    <connection from="-gneE2" to="-gneE1" fromLane="0" toLane="0" via=":gneJ3_0_0" dir="s" state="M"/>
    <connection from="-gneE2" to="gneE2" fromLane="0" toLane="0" via=":gneJ3_1_0" dir="t" state="m"/>
    <connection from="-gneE3" to="-gneE2" fromLane="0" toLane="0" via=":gneJ4_0_0" dir="l" state="M"/>