<?xml version="1.0" encoding="UTF-8"?>

<!-- generated on Monday 09 March 2020 01:12:11 PM IST by Eclipse SUMO netedit Version 1.2.0
<configuration xmlns:xsi="http://www.w3.org/2001/XMLSchema-instance" xsi:noNamespaceSchemaLocation="http://sumo.dlr.de/xsd/netconvertConfiguration.xsd">

    <output>
        <output-file value="/home/armslab/Desktop/networks_SUMO/Circle/circle.net.xml"/>
        <plain-output-prefix value="/home/armslab/Desktop/networks_SUMO/Circle/circle"/>
    </output>

    <processing>
        <offset.disable-normalization value="true"/>
    </processing>

    <junctions>
        <no-turnarounds value="true"/>
    </junctions>

</configuration>
-->

<nodes version="1.1" xmlns:xsi="http://www.w3.org/2001/XMLSchema-instance" xsi:noNamespaceSchemaLocation="http://sumo.dlr.de/xsd/nodes_file.xsd">
    <location netOffset="0.00,0.00" convBoundary="0.00,-200.00,401.75,200.00" origBoundary="10000000000.00,10000000000.00,-10000000000.00,-10000000000.00" projParameter="!"/>

    <node id="gneJ10" x="100.00" y="-200.00" type="priority"/>
    <node id="gneJ11" x="0.00" y="-100.00" type="priority"/>
    <node id="gneJ12" x="0.00" y="0.00" type="priority"/>
    <node id="gneJ13" x="0.00" y="100.00" type="priority"/>
    <node id="gneJ2" x="100.00" y="200.00" type="priority"/>
    <node id="gneJ3" x="200.00" y="200.00" type="priority"/>
    <node id="gneJ4" x="300.00" y="200.00" type="priority"/>
    <node id="gneJ5" x="400.00" y="100.00" type="priority"/>
    <node id="gneJ6" x="400.00" y="0.00" type="priority"/>
    <node id="gneJ7" x="400.00" y="-100.00" type="priority"/>
    <node id="gneJ8" x="300.00" y="-200.00" type="priority"/>
    <node id="gneJ9" x="200.00" y="-200.00" type="priority"/>
</nodes>
