<?xml version="1.0" encoding="UTF-8"?>

<!-- generated on Tuesday 26 January 2021 03:45:13 PM IST by Eclipse SUMO netedit Version 1.8.0
<configuration xmlns:xsi="http://www.w3.org/2001/XMLSchema-instance" xsi:noNamespaceSchemaLocation="http://sumo.dlr.de/xsd/netconvertConfiguration.xsd">

    <input>
        <sumo-net-file value="/home/vishwajeet/Documents/projects/prof/patrolling/pat_code/maps/asymmetric/complex_final.net.xml"/>
    </input>

    <output>
        <output-file value="/home/vishwajeet/Documents/projects/prof/patrolling/pat_code/maps/asymmetric/complex_final.net.xml"/>
        <plain-output-prefix value="/home/vishwajeet/Documents/projects/prof/patrolling/pat_code/maps/asymmetric/complex_final"/>
    </output>

    <processing>
        <geometry.min-radius.fix.railways value="false"/>
        <geometry.max-grade.fix value="false"/>
        <offset.disable-normalization value="true"/>
        <lefthand value="false"/>
    </processing>

    <junctions>
        <no-turnarounds value="true"/>
        <junctions.corner-detail value="5"/>
        <junctions.limit-turn-speed value="5.5"/>
        <rectangular-lane-cut value="false"/>
    </junctions>

    <pedestrian>
        <walkingareas value="false"/>
    </pedestrian>

    <report>
        <aggregate-warnings value="5"/>
    </report>

</configuration>
-->

<nodes version="1.6" xmlns:xsi="http://www.w3.org/2001/XMLSchema-instance" xsi:noNamespaceSchemaLocation="http://sumo.dlr.de/xsd/nodes_file.xsd">
    <location netOffset="0.00,0.00" convBoundary="200.00,-700.00,1600.00,400.00" origBoundary="-10000000000.00,-10000000000.00,10000000000.00,10000000000.00" projParameter="!"/>

    <node id="0" x="200.00" y="-700.00" type="priority"/>
    <node id="1" x="600.00" y="-700.00" type="priority"/>
    <node id="10" x="1096.07" y="-452.91" type="priority"/>
    <node id="11" x="200.00" y="400.00" type="priority"/>
    <node id="12" x="511.62" y="40.58" type="priority"/>
    <node id="13" x="1400.00" y="-700.00" type="priority"/>
    <node id="14" x="400.00" y="400.00" type="priority"/>
    <node id="15" x="1211.95" y="124.14" type="priority"/>
    <node id="16" x="1600.00" y="-700.00" type="priority"/>
    <node id="17" x="627.22" y="209.05" type="priority"/>
    <node id="18" x="1200.00" y="400.00" type="priority"/>
    <node id="19" x="1600.00" y="-500.00" type="priority"/>
    <node id="2" x="200.00" y="-100.00" type="priority"/>
    <node id="20" x="700.00" y="400.00" type="priority"/>
    <node id="21" x="1400.00" y="400.00" type="priority"/>
    <node id="22" x="1600.00" y="-300.00" type="priority"/>
    <node id="23" x="900.00" y="400.00" type="priority"/>
    <node id="24" x="1600.00" y="400.00" type="priority"/>
    <node id="25" x="1425.32" y="-265.86" type="priority"/>
    <node id="26" x="891.65" y="136.51" type="priority"/>
    <node id="27" x="1600.00" y="200.00" type="priority"/>
    <node id="3" x="595.03" y="-396.58" type="priority"/>
    <node id="4" x="900.00" y="-700.00" type="priority"/>
    <node id="5" x="200.00" y="100.00" type="priority"/>
    <node id="6" x="504.74" y="-184.08" type="priority"/>
    <node id="7" x="1100.00" y="-700.00" type="priority"/>
    <node id="8" x="360.04" y="133.59" type="priority"/>
    <node id="9" x="1074.66" y="-255.08" type="priority"/>
</nodes>
