<?xml version="1.0" encoding="UTF-8"?>

<!-- generated on Mon 15 Feb 2021 09:59:01 AM IST by Eclipse SUMO netedit Version 1.8.0
<configuration xmlns:xsi="http://www.w3.org/2001/XMLSchema-instance" xsi:noNamespaceSchemaLocation="http://sumo.dlr.de/xsd/netconvertConfiguration.xsd">

    <input>
        <sumo-net-file value="/home/dikshant/github/pat_code/maps/asymmetric/complex_final.net.xml"/>
    </input>

    <output>
        <output-file value="/home/dikshant/github/pat_code/maps/asymmetric/complex_final.net.xml"/>
    </output>

    <processing>
        <geometry.min-radius.fix.railways value="false"/>
        <geometry.max-grade.fix value="false"/>
        <offset.disable-normalization value="true"/>
        <lefthand value="false"/>
    </processing>

    <junctions>
        <no-turnarounds value="true"/>
        <junctions.corner-detail value="5"/>
        <junctions.limit-turn-speed value="5.5"/>
        <rectangular-lane-cut value="false"/>
    </junctions>

    <pedestrian>
        <walkingareas value="false"/>
    </pedestrian>

    <report>
        <aggregate-warnings value="5"/>
    </report>

</configuration>
-->

<net version="1.6" junctionCornerDetail="5" limitTurnSpeed="5.50" xmlns:xsi="http://www.w3.org/2001/XMLSchema-instance" xsi:noNamespaceSchemaLocation="http://sumo.dlr.de/xsd/net_file.xsd">

    <location netOffset="0.00,0.00" convBoundary="200.00,-700.00,1600.00,400.00" origBoundary="-10000000000.00,-10000000000.00,10000000000.00,10000000000.00" projParameter="!"/>

    <edge id=":0_0" function="internal">
        <lane id=":0_0_0" index="0" speed="13.13" length="39.97" shape="195.20,-683.01 196.93,-692.55 202.11,-699.35 210.75,-703.44 222.84,-704.80"/>
    </edge>
    <edge id=":0_1" function="internal">
        <lane id=":0_1_0" index="0" speed="10.08" length="17.87" shape="195.20,-683.01 197.58,-691.63 203.70,-695.42 205.43,-695.27"/>
    </edge>
    <edge id=":0_2" function="internal">
        <lane id=":0_2_0" index="0" speed="5.58" length="7.94" shape="195.20,-683.01 197.60,-686.61 200.00,-687.81 200.83,-687.40"/>
    </edge>
    <edge id=":0_3" function="internal">
        <lane id=":0_3_0" index="0" speed="12.28" length="34.82" shape="198.40,-683.01 199.93,-691.15 204.51,-696.95 212.15,-700.44 222.84,-701.60"/>
    </edge>
    <edge id=":0_4" function="internal">
        <lane id=":0_4_0" index="0" speed="9.01" length="8.12" shape="198.40,-683.01 200.32,-689.65 201.39,-690.22"/>
    </edge>
    <edge id=":0_5" function="internal">
        <lane id=":0_5_0" index="0" speed="3.65" length="2.63" shape="198.40,-683.01 199.20,-684.21 200.00,-684.61 200.26,-684.48"/>
    </edge>
    <edge id=":0_18" function="internal">
        <lane id=":0_18_0" index="0" speed="10.08" length="16.84" shape="205.43,-695.27 212.03,-694.73 221.04,-689.89"/>
    </edge>
    <edge id=":0_19" function="internal">
        <lane id=":0_19_0" index="0" speed="5.58" length="6.08" shape="200.83,-687.40 202.40,-686.61 204.80,-683.01"/>
    </edge>
    <edge id=":0_20" function="internal">
        <lane id=":0_20_0" index="0" speed="9.01" length="19.31" shape="201.39,-690.22 205.25,-692.27 211.93,-691.35 219.09,-687.36"/>
    </edge>
    <edge id=":0_21" function="internal">
        <lane id=":0_21_0" index="0" speed="3.65" length="2.05" shape="200.26,-684.48 200.80,-684.21 201.60,-683.01"/>
    </edge>
    <edge id=":0_6" function="internal">
        <lane id=":0_6_0" index="0" speed="6.55" length="13.75" shape="215.19,-682.28 210.64,-685.32 207.40,-686.45 205.45,-685.69 204.80,-683.01"/>
    </edge>
    <edge id=":0_7" function="internal">
        <lane id=":0_7_0" index="0" speed="9.12" length="31.89" shape="215.19,-682.28 210.11,-689.20 210.13,-696.56 214.60,-702.41 222.84,-704.80"/>
    </edge>
    <edge id=":0_8" function="internal">
        <lane id=":0_8_0" index="0" speed="5.58" length="14.02" shape="215.19,-682.28 213.80,-686.38 214.31,-689.01 216.72,-690.18 221.04,-689.89"/>
    </edge>
    <edge id=":0_9" function="internal">
        <lane id=":0_9_0" index="0" speed="8.12" length="21.99" shape="217.14,-684.82 210.34,-689.18 205.48,-690.34 202.57,-688.28 201.60,-683.01"/>
    </edge>
    <edge id=":0_10" function="internal">
        <lane id=":0_10_0" index="0" speed="7.95" length="23.76" shape="217.14,-684.82 213.35,-689.97 213.37,-695.46 216.70,-699.82 222.84,-701.60"/>
    </edge>
    <edge id=":0_11" function="internal">
        <lane id=":0_11_0" index="0" speed="3.65" length="4.67" shape="217.14,-684.82 216.67,-686.18 216.84,-687.06 217.65,-687.45 219.09,-687.36"/>
    </edge>
    <edge id=":0_12" function="internal">
        <lane id=":0_12_0" index="0" speed="5.46" length="10.27" shape="222.84,-695.20 219.46,-694.87 218.03,-693.87 218.56,-692.22 221.04,-689.89"/>
    </edge>
    <edge id=":0_13" function="internal">
        <lane id=":0_13_0" index="0" speed="10.37" length="24.55" shape="222.84,-695.20 214.95,-694.44 209.31,-692.15 205.93,-688.35 204.80,-683.01"/>
    </edge>
    <edge id=":0_14" function="internal">
        <lane id=":0_14_0" index="0" speed="5.58" length="6.45" shape="222.84,-695.20 219.24,-697.60 218.29,-699.50"/>
    </edge>
    <edge id=":0_15" function="internal">
        <lane id=":0_15_0" index="0" speed="7.57" length="21.37" shape="222.84,-698.40 215.81,-697.71 212.84,-695.64 213.93,-692.19 219.09,-687.36"/>
    </edge>
    <edge id=":0_16" function="internal">
        <lane id=":0_16_0" index="0" speed="11.36" length="29.68" shape="222.84,-698.40 213.55,-697.44 206.91,-694.55 202.93,-689.75 201.60,-683.01"/>
    </edge>
    <edge id=":0_17" function="internal">
        <lane id=":0_17_0" index="0" speed="3.65" length="2.14" shape="222.84,-698.40 221.64,-699.20 221.33,-699.83"/>
    </edge>
    <edge id=":0_22" function="internal">
        <lane id=":0_22_0" index="0" speed="5.58" length="7.57" shape="218.29,-699.50 218.04,-700.00 219.24,-702.40 222.84,-704.80"/>
    </edge>
    <edge id=":0_23" function="internal">
        <lane id=":0_23_0" index="0" speed="3.65" length="2.53" shape="221.33,-699.83 221.24,-700.00 221.64,-700.80 222.84,-701.60"/>
    </edge>
    <edge id=":1_0" function="internal">
        <lane id=":1_0_0" index="0" speed="6.60" length="9.20" shape="610.30,-695.20 607.85,-694.84 606.09,-693.75 605.02,-691.95 604.63,-689.42"/>
    </edge>
    <edge id=":1_1" function="internal">
        <lane id=":1_1_0" index="0" speed="13.89" length="20.80" shape="610.30,-695.20 589.49,-695.20"/>
    </edge>
    <edge id=":1_2" function="internal">
        <lane id=":1_2_0" index="0" speed="5.58" length="7.01" shape="610.30,-695.20 606.70,-697.60 605.50,-700.00"/>
    </edge>
    <edge id=":1_3" function="internal">
        <lane id=":1_3_0" index="0" speed="8.08" length="5.87" shape="610.30,-698.40 606.47,-697.84 604.76,-696.80"/>
    </edge>
    <edge id=":1_4" function="internal">
        <lane id=":1_4_0" index="0" speed="13.89" length="20.80" shape="610.30,-698.40 589.49,-698.40"/>
    </edge>
    <edge id=":1_5" function="internal">
        <lane id=":1_5_0" index="0" speed="3.65" length="2.34" shape="610.30,-698.40 609.10,-699.20 608.70,-700.00"/>
    </edge>
    <edge id=":1_18" function="internal">
        <lane id=":1_18_0" index="0" speed="5.58" length="7.01" shape="605.50,-700.00 606.70,-702.40 610.30,-704.80"/>
    </edge>
    <edge id=":1_19" function="internal">
        <lane id=":1_19_0" index="0" speed="8.08" length="8.43" shape="604.76,-696.80 603.72,-696.17 602.04,-693.38 601.43,-689.47"/>
    </edge>
    <edge id=":1_20" function="internal">
        <lane id=":1_20_0" index="0" speed="3.65" length="2.34" shape="608.70,-700.00 609.10,-700.80 610.30,-701.60"/>
    </edge>
    <edge id=":1_6" function="internal">
        <lane id=":1_6_0" index="0" speed="13.89" length="20.80" shape="589.49,-704.80 610.30,-704.80"/>
    </edge>
    <edge id=":1_7" function="internal">
        <lane id=":1_7_0" index="0" speed="10.34" length="13.45" shape="589.49,-704.80 596.21,-703.84 600.97,-700.95 601.53,-700.00"/>
    </edge>
    <edge id=":1_8" function="internal">
        <lane id=":1_8_0" index="0" speed="5.58" length="7.01" shape="589.49,-704.80 593.09,-702.40 594.29,-700.00"/>
    </edge>
    <edge id=":1_9" function="internal">
        <lane id=":1_9_0" index="0" speed="13.89" length="20.80" shape="589.49,-701.60 610.30,-701.60"/>
    </edge>
    <edge id=":1_10" function="internal">
        <lane id=":1_10_0" index="0" speed="9.23" length="6.97" shape="589.49,-701.60 594.79,-700.84 596.18,-700.00"/>
    </edge>
    <edge id=":1_11" function="internal">
        <lane id=":1_11_0" index="0" speed="3.65" length="2.34" shape="589.49,-701.60 590.69,-700.80 591.09,-700.00"/>
    </edge>
    <edge id=":1_21" function="internal">
        <lane id=":1_21_0" index="0" speed="10.34" length="11.24" shape="601.53,-700.00 603.78,-696.15 604.63,-689.42"/>
    </edge>
    <edge id=":1_22" function="internal">
        <lane id=":1_22_0" index="0" speed="5.58" length="7.01" shape="594.29,-700.00 593.09,-697.60 589.49,-695.20"/>
    </edge>
    <edge id=":1_23" function="internal">
        <lane id=":1_23_0" index="0" speed="9.23" length="12.50" shape="596.18,-700.00 598.54,-698.57 600.76,-694.78 601.43,-689.47"/>
    </edge>
    <edge id=":1_24" function="internal">
        <lane id=":1_24_0" index="0" speed="3.65" length="2.34" shape="591.09,-700.00 590.69,-699.20 589.49,-698.40"/>
    </edge>
    <edge id=":1_12" function="internal">
        <lane id=":1_12_0" index="0" speed="6.47" length="9.03" shape="595.03,-689.57 594.72,-692.04 593.69,-693.79 591.95,-694.85 589.49,-695.20"/>
    </edge>
    <edge id=":1_13" function="internal">
        <lane id=":1_13_0" index="0" speed="10.42" length="24.50" shape="595.03,-689.57 596.08,-696.24 598.97,-700.99 603.71,-703.85 610.30,-704.80"/>
    </edge>
    <edge id=":1_14" function="internal">
        <lane id=":1_14_0" index="0" speed="5.58" length="14.02" shape="595.03,-689.57 597.49,-693.13 599.91,-694.30 602.29,-693.06 604.63,-689.42"/>
    </edge>
    <edge id=":1_15" function="internal">
        <lane id=":1_15_0" index="0" speed="7.97" length="14.26" shape="598.23,-689.52 597.74,-693.41 596.12,-696.18 593.37,-697.85 589.49,-698.40"/>
    </edge>
    <edge id=":1_16" function="internal">
        <lane id=":1_16_0" index="0" speed="9.32" length="19.40" shape="598.23,-689.52 599.06,-694.81 601.34,-698.58 605.09,-700.85 610.30,-701.60"/>
    </edge>
    <edge id=":1_17" function="internal">
        <lane id=":1_17_0" index="0" speed="3.65" length="4.67" shape="598.23,-689.52 599.05,-690.71 599.85,-691.10 600.65,-690.68 601.43,-689.47"/>
    </edge>
    <edge id=":10_0" function="internal">
        <lane id=":10_0_0" index="0" speed="13.89" length="20.32" shape="1112.86,-460.37 1107.85,-456.87 1104.07,-454.40 1101.50,-451.28 1100.13,-445.80"/>
    </edge>
    <edge id=":10_1" function="internal">
        <lane id=":10_1_0" index="0" speed="9.44" length="30.95" shape="1112.86,-460.37 1105.19,-456.64 1098.30,-457.50 1093.36,-462.38 1091.55,-470.72"/>
    </edge>
    <edge id=":10_2" function="internal">
        <lane id=":10_2_0" index="0" speed="5.58" length="14.02" shape="1112.86,-460.37 1108.55,-459.96 1106.10,-461.07 1105.52,-463.69 1106.80,-467.82"/>
    </edge>
    <edge id=":10_3" function="internal">
        <lane id=":10_3_0" index="0" speed="13.89" length="22.65" shape="1110.84,-462.85 1105.55,-458.98 1101.39,-455.86 1098.48,-452.06 1096.95,-446.14"/>
    </edge>
    <edge id=":10_4" function="internal">
        <lane id=":10_4_0" index="0" speed="8.27" length="23.37" shape="1110.84,-462.85 1105.05,-460.03 1099.85,-460.68 1096.11,-464.37 1094.75,-470.66"/>
    </edge>
    <edge id=":10_5" function="internal">
        <lane id=":10_5_0" index="0" speed="3.65" length="4.67" shape="1110.84,-462.85 1109.40,-462.72 1108.59,-463.09 1108.39,-463.96 1108.82,-465.34"/>
    </edge>
    <edge id=":10_6" function="internal">
        <lane id=":10_6_0" index="0" speed="5.52" length="9.51" shape="1101.15,-470.56 1101.46,-467.60 1102.50,-466.16 1104.28,-466.23 1106.80,-467.82"/>
    </edge>
    <edge id=":10_7" function="internal">
        <lane id=":10_7_0" index="0" speed="13.89" length="24.80" shape="1101.15,-470.56 1101.08,-463.87 1100.98,-458.16 1100.72,-452.46 1100.13,-445.80"/>
    </edge>
    <edge id=":10_8" function="internal">
        <lane id=":10_8_0" index="0" speed="5.58" length="7.01" shape="1101.15,-470.56 1098.69,-467.00 1096.28,-465.84"/>
    </edge>
    <edge id=":10_9" function="internal">
        <lane id=":10_9_0" index="0" speed="7.38" length="7.30" shape="1097.95,-470.61 1098.55,-464.92 1099.47,-463.64"/>
    </edge>
    <edge id=":10_10" function="internal">
        <lane id=":10_10_0" index="0" speed="13.89" length="24.50" shape="1097.95,-470.61 1097.88,-463.97 1097.79,-458.36 1097.54,-452.76 1096.95,-446.14"/>
    </edge>
    <edge id=":10_11" function="internal">
        <lane id=":10_11_0" index="0" speed="3.65" length="2.34" shape="1097.95,-470.61 1097.13,-469.43 1096.33,-469.04"/>
    </edge>
    <edge id=":10_18" function="internal">
        <lane id=":10_18_0" index="0" speed="5.58" length="7.01" shape="1096.28,-465.84 1093.90,-467.08 1091.55,-470.72"/>
    </edge>
    <edge id=":10_19" function="internal">
        <lane id=":10_19_0" index="0" speed="7.38" length="11.00" shape="1099.47,-463.64 1100.55,-462.15 1103.98,-462.28 1108.82,-465.34"/>
    </edge>
    <edge id=":10_20" function="internal">
        <lane id=":10_20_0" index="0" speed="3.65" length="2.34" shape="1096.33,-469.04 1095.53,-469.45 1094.75,-470.66"/>
    </edge>
    <edge id=":10_12" function="internal">
        <lane id=":10_12_0" index="0" speed="13.89" length="23.92" shape="1090.58,-446.83 1091.17,-453.35 1091.41,-458.75 1091.49,-464.16 1091.55,-470.72"/>
    </edge>
    <edge id=":10_13" function="internal">
        <lane id=":10_13_0" index="0" speed="13.89" length="13.30" shape="1090.58,-446.83 1092.48,-453.42 1096.19,-458.69"/>
    </edge>
    <edge id=":10_14" function="internal">
        <lane id=":10_14_0" index="0" speed="5.58" length="6.91" shape="1090.58,-446.83 1093.36,-450.15 1095.78,-451.05"/>
    </edge>
    <edge id=":10_15" function="internal">
        <lane id=":10_15_0" index="0" speed="13.89" length="24.21" shape="1093.77,-446.49 1094.35,-453.05 1094.60,-458.56 1094.68,-464.07 1094.75,-470.66"/>
    </edge>
    <edge id=":10_16" function="internal">
        <lane id=":10_16_0" index="0" speed="13.89" length="7.30" shape="1093.77,-446.49 1095.48,-452.74 1095.96,-453.40"/>
    </edge>
    <edge id=":10_17" function="internal">
        <lane id=":10_17_0" index="0" speed="3.65" length="2.34" shape="1093.77,-446.49 1094.69,-447.60 1095.53,-447.91"/>
    </edge>
    <edge id=":10_21" function="internal">
        <lane id=":10_21_0" index="0" speed="13.89" length="14.01" shape="1096.19,-458.69 1101.14,-463.28 1106.80,-467.82"/>
    </edge>
    <edge id=":10_22" function="internal">
        <lane id=":10_22_0" index="0" speed="5.58" length="7.11" shape="1095.78,-451.05 1095.87,-451.09 1098.13,-449.64 1100.13,-445.80"/>
    </edge>
    <edge id=":10_23" function="internal">
        <lane id=":10_23_0" index="0" speed="13.89" length="17.67" shape="1095.96,-453.40 1098.79,-457.28 1103.34,-461.13 1108.82,-465.34"/>
    </edge>
    <edge id=":10_24" function="internal">
        <lane id=":10_24_0" index="0" speed="3.65" length="2.34" shape="1095.53,-447.91 1096.28,-447.42 1096.95,-446.14"/>
    </edge>
    <edge id=":11_0" function="internal">
        <lane id=":11_0_0" index="0" speed="8.96" length="18.06" shape="206.40,404.80 201.50,404.10 198.00,402.00 195.90,398.50 195.20,393.60"/>
    </edge>
    <edge id=":11_1" function="internal">
        <lane id=":11_1_0" index="0" speed="5.58" length="8.43" shape="206.40,404.80 202.80,402.40 201.60,400.00 202.24,398.73"/>
    </edge>
    <edge id=":11_2" function="internal">
        <lane id=":11_2_0" index="0" speed="7.66" length="12.90" shape="206.40,401.60 202.90,401.10 200.40,399.60 198.90,397.10 198.40,393.60"/>
    </edge>
    <edge id=":11_3" function="internal">
        <lane id=":11_3_0" index="0" speed="3.65" length="2.56" shape="206.40,401.60 205.20,400.80 204.80,400.00 204.90,399.80"/>
    </edge>
    <edge id=":11_8" function="internal">
        <lane id=":11_8_0" index="0" speed="5.58" length="5.59" shape="202.24,398.73 202.80,397.60 206.40,395.20"/>
    </edge>
    <edge id=":11_9" function="internal">
        <lane id=":11_9_0" index="0" speed="3.65" length="2.12" shape="204.90,399.80 205.20,399.20 206.40,398.40"/>
    </edge>
    <edge id=":11_4" function="internal">
        <lane id=":11_4_0" index="0" speed="3.90" length="2.58" shape="204.80,393.60 204.90,394.30 205.20,394.80 205.70,395.10 206.40,395.20"/>
    </edge>
    <edge id=":11_5" function="internal">
        <lane id=":11_5_0" index="0" speed="5.58" length="5.68" shape="204.80,393.60 202.40,397.20 201.19,397.81"/>
    </edge>
    <edge id=":11_6" function="internal">
        <lane id=":11_6_0" index="0" speed="6.08" length="7.74" shape="201.60,393.60 201.90,395.70 202.80,397.20 204.30,398.10 206.40,398.40"/>
    </edge>
    <edge id=":11_7" function="internal">
        <lane id=":11_7_0" index="0" speed="3.65" length="2.08" shape="201.60,393.60 200.80,394.80 200.23,395.09"/>
    </edge>
    <edge id=":11_10" function="internal">
        <lane id=":11_10_0" index="0" speed="5.58" length="8.34" shape="201.19,397.81 200.00,398.40 197.60,397.20 195.20,393.60"/>
    </edge>
    <edge id=":11_11" function="internal">
        <lane id=":11_11_0" index="0" speed="3.65" length="2.59" shape="200.23,395.09 200.00,395.20 199.20,394.80 198.40,393.60"/>
    </edge>
    <edge id=":12_0" function="internal">
        <lane id=":12_0_0" index="0" speed="9.29" length="18.74" shape="519.51,60.57 515.16,54.84 511.38,51.16 508.18,49.53 505.54,49.94"/>
    </edge>
    <edge id=":12_1" function="internal">
        <lane id=":12_1_0" index="0" speed="13.89" length="31.84" shape="519.51,60.57 515.14,54.02 511.03,46.89 507.91,39.44 506.55,31.90"/>
    </edge>
    <edge id=":12_2" function="internal">
        <lane id=":12_2_0" index="0" speed="9.22" length="11.97" shape="519.51,60.57 516.68,52.47 517.63,49.21"/>
    </edge>
    <edge id=":12_3" function="internal">
        <lane id=":12_3_0" index="0" speed="5.58" length="7.01" shape="519.51,60.57 519.46,56.24 520.76,53.89"/>
    </edge>
    <edge id=":12_4" function="internal">
        <lane id=":12_4_0" index="0" speed="10.36" length="11.31" shape="522.15,58.76 516.89,52.03 514.80,50.21"/>
    </edge>
    <edge id=":12_5" function="internal">
        <lane id=":12_5_0" index="0" speed="13.89" length="30.07" shape="522.15,58.76 517.87,52.47 513.94,45.94 511.02,39.07 509.75,31.80"/>
    </edge>
    <edge id=":12_6" function="internal">
        <lane id=":12_6_0" index="0" speed="8.05" length="5.95" shape="522.15,58.76 520.19,53.15"/>
    </edge>
    <edge id=":12_7" function="internal">
        <lane id=":12_7_0" index="0" speed="3.65" length="2.34" shape="522.15,58.76 522.13,57.32 522.57,56.53"/>
    </edge>
    <edge id=":12_32" function="internal">
        <lane id=":12_32_0" index="0" speed="9.22" length="19.67" shape="517.63,49.21 518.70,45.51 524.53,41.21 533.11,41.05"/>
    </edge>
    <edge id=":12_33" function="internal">
        <lane id=":12_33_0" index="0" speed="5.58" length="7.01" shape="520.76,53.89 523.41,53.53 527.43,55.14"/>
    </edge>
    <edge id=":12_34" function="internal">
        <lane id=":12_34_0" index="0" speed="10.36" length="12.21" shape="514.80,50.21 512.08,47.86 507.74,46.26 503.86,47.22"/>
    </edge>
    <edge id=":12_35" function="internal">
        <lane id=":12_35_0" index="0" speed="8.05" length="17.73" shape="520.19,53.15 520.03,52.70 521.55,47.49 525.90,44.27 532.32,44.16"/>
    </edge>
    <edge id=":12_36" function="internal">
        <lane id=":12_36_0" index="0" speed="3.65" length="2.34" shape="522.57,56.53 523.45,56.41 524.79,56.95"/>
    </edge>
    <edge id=":12_8" function="internal">
        <lane id=":12_8_0" index="0" speed="5.46" length="9.96" shape="530.76,50.36 527.55,49.90 525.93,50.55 525.89,52.29 527.43,55.14"/>
    </edge>
    <edge id=":12_9" function="internal">
        <lane id=":12_9_0" index="0" speed="13.89" length="25.73" shape="530.76,50.36 522.30,48.60 515.28,47.94 509.69,48.39 505.54,49.94"/>
    </edge>
    <edge id=":12_10" function="internal">
        <lane id=":12_10_0" index="0" speed="13.08" length="31.26" shape="530.76,50.36 523.36,47.33 515.48,42.36 509.19,36.78 506.55,31.90"/>
    </edge>
    <edge id=":12_11" function="internal">
        <lane id=":12_11_0" index="0" speed="5.58" length="14.02" shape="530.76,50.36 527.85,47.15 527.28,44.53 529.03,42.50 533.11,41.05"/>
    </edge>
    <edge id=":12_12" function="internal">
        <lane id=":12_12_0" index="0" speed="7.48" length="20.21" shape="531.54,47.26 525.04,46.33 521.75,47.64 521.67,51.17 524.79,56.95"/>
    </edge>
    <edge id=":12_13" function="internal">
        <lane id=":12_13_0" index="0" speed="13.89" length="28.27" shape="531.54,47.26 522.44,45.39 514.79,44.77 508.60,45.37 503.86,47.22"/>
    </edge>
    <edge id=":12_14" function="internal">
        <lane id=":12_14_0" index="0" speed="12.30" length="27.53" shape="531.54,47.26 524.52,44.63 517.47,40.59 512.01,36.02 509.75,31.80"/>
    </edge>
    <edge id=":12_15" function="internal">
        <lane id=":12_15_0" index="0" speed="3.65" length="4.67" shape="531.54,47.26 530.57,46.19 530.38,45.32 530.96,44.64 532.32,44.16"/>
    </edge>
    <edge id=":12_16" function="internal">
        <lane id=":12_16_0" index="0" speed="10.60" length="20.23" shape="516.15,31.61 517.27,34.15 520.47,36.57 525.75,38.87 533.11,41.05"/>
    </edge>
    <edge id=":12_17" function="internal">
        <lane id=":12_17_0" index="0" speed="13.89" length="26.54" shape="516.15,31.61 517.24,38.34 519.78,44.03 523.32,49.39 527.43,55.14"/>
    </edge>
    <edge id=":12_18" function="internal">
        <lane id=":12_18_0" index="0" speed="12.63" length="10.35" shape="516.15,31.61 515.62,37.11 513.83,41.59"/>
    </edge>
    <edge id=":12_19" function="internal">
        <lane id=":12_19_0" index="0" speed="5.58" length="6.27" shape="516.15,31.61 513.86,35.28 512.14,36.20"/>
    </edge>
    <edge id=":12_20" function="internal">
        <lane id=":12_20_0" index="0" speed="11.57" length="5.26" shape="512.95,31.71 514.25,35.34 515.29,36.27"/>
    </edge>
    <edge id=":12_21" function="internal">
        <lane id=":12_21_0" index="0" speed="13.89" length="28.30" shape="512.95,31.71 514.13,38.71 516.86,44.98 520.60,50.93 524.79,56.95"/>
    </edge>
    <edge id=":12_22" function="internal">
        <lane id=":12_22_0" index="0" speed="11.66" length="5.26" shape="512.95,31.71 512.49,36.33 512.27,36.90"/>
    </edge>
    <edge id=":12_23" function="internal">
        <lane id=":12_23_0" index="0" speed="3.65" length="2.08" shape="512.95,31.71 512.19,32.93 511.62,33.23"/>
    </edge>
    <edge id=":12_37" function="internal">
        <lane id=":12_37_0" index="0" speed="12.63" length="11.90" shape="513.83,41.59 513.67,42.00 510.31,46.27 505.54,49.94"/>
    </edge>
    <edge id=":12_38" function="internal">
        <lane id=":12_38_0" index="0" speed="5.58" length="7.75" shape="512.14,36.20 511.50,36.55 509.06,35.43 506.55,31.90"/>
    </edge>
    <edge id=":12_39" function="internal">
        <lane id=":12_39_0" index="0" speed="11.57" length="19.01" shape="515.29,36.27 517.91,38.63 523.93,41.57 532.32,44.16"/>
    </edge>
    <edge id=":12_40" function="internal">
        <lane id=":12_40_0" index="0" speed="11.66" length="13.62" shape="512.27,36.90 510.83,40.46 507.95,44.09 503.86,47.22"/>
    </edge>
    <edge id=":12_41" function="internal">
        <lane id=":12_41_0" index="0" speed="3.65" length="2.59" shape="511.62,33.23 511.40,33.35 510.59,32.98 509.75,31.80"/>
    </edge>
    <edge id=":12_24" function="internal">
        <lane id=":12_24_0" index="0" speed="9.43" length="12.13" shape="500.52,41.76 503.23,39.71 505.14,37.39 506.24,34.78 506.55,31.90"/>
    </edge>
    <edge id=":12_25" function="internal">
        <lane id=":12_25_0" index="0" speed="13.89" length="33.34" shape="500.52,41.76 506.42,39.34 513.82,38.42 522.72,38.99 533.11,41.05"/>
    </edge>
    <edge id=":12_26" function="internal">
        <lane id=":12_26_0" index="0" speed="11.90" length="31.38" shape="500.52,41.76 506.35,41.39 514.16,44.43 521.88,49.48 527.43,55.14"/>
    </edge>
    <edge id=":12_27" function="internal">
        <lane id=":12_27_0" index="0" speed="5.58" length="14.02" shape="500.52,41.76 504.84,41.92 507.12,43.34 507.35,46.02 505.54,49.94"/>
    </edge>
    <edge id=":12_28" function="internal">
        <lane id=":12_28_0" index="0" speed="10.60" length="15.51" shape="502.19,44.49 505.59,41.90 507.98,38.92 509.37,35.56 509.75,31.80"/>
    </edge>
    <edge id=":12_29" function="internal">
        <lane id=":12_29_0" index="0" speed="13.89" length="30.80" shape="502.19,44.49 507.51,42.36 514.31,41.59 522.58,42.19 532.32,44.16"/>
    </edge>
    <edge id=":12_30" function="internal">
        <lane id=":12_30_0" index="0" speed="11.08" length="27.07" shape="502.19,44.49 507.12,44.16 513.52,46.92 519.90,51.58 524.79,56.95"/>
    </edge>
    <edge id=":12_31" function="internal">
        <lane id=":12_31_0" index="0" speed="3.65" length="4.67" shape="502.19,44.49 503.63,44.54 504.39,45.02 504.47,45.91 503.86,47.22"/>
    </edge>
    <edge id=":13_0" function="internal">
        <lane id=":13_0_0" index="0" speed="11.34" length="27.22" shape="1410.36,-682.85 1404.82,-686.83 1398.91,-688.08 1392.62,-686.60 1385.94,-682.39"/>
    </edge>
    <edge id=":13_1" function="internal">
        <lane id=":13_1_0" index="0" speed="13.89" length="35.55" shape="1410.36,-682.85 1403.71,-688.25 1396.09,-692.11 1387.52,-694.43 1377.98,-695.20"/>
    </edge>
    <edge id=":13_2" function="internal">
        <lane id=":13_2_0" index="0" speed="9.32" length="31.38" shape="1410.36,-682.85 1405.99,-690.22 1406.46,-697.33 1411.15,-702.68 1419.45,-704.80"/>
    </edge>
    <edge id=":13_3" function="internal">
        <lane id=":13_3_0" index="0" speed="5.58" length="14.02" shape="1410.36,-682.85 1409.51,-687.09 1410.36,-689.64 1412.91,-690.49 1417.15,-689.64"/>
    </edge>
    <edge id=":13_4" function="internal">
        <lane id=":13_4_0" index="0" speed="12.26" length="32.00" shape="1412.62,-685.11 1406.05,-689.87 1399.08,-691.42 1391.71,-689.75 1383.93,-684.87"/>
    </edge>
    <edge id=":13_5" function="internal">
        <lane id=":13_5_0" index="0" speed="13.89" length="37.70" shape="1412.62,-685.11 1405.63,-690.17 1396.40,-694.41 1386.62,-697.32 1377.98,-698.40"/>
    </edge>
    <edge id=":13_6" function="internal">
        <lane id=":13_6_0" index="0" speed="8.14" length="23.57" shape="1412.62,-685.11 1409.34,-690.65 1409.69,-695.99 1413.22,-700.01 1419.45,-701.60"/>
    </edge>
    <edge id=":13_7" function="internal">
        <lane id=":13_7_0" index="0" speed="3.65" length="4.67" shape="1412.62,-685.11 1412.34,-686.53 1412.62,-687.38 1413.47,-687.66 1414.89,-687.38"/>
    </edge>
    <edge id=":13_8" function="internal">
        <lane id=":13_8_0" index="0" speed="5.47" length="9.74" shape="1419.45,-695.20 1416.36,-694.85 1414.94,-693.81 1415.21,-692.07 1417.15,-689.64"/>
    </edge>
    <edge id=":13_9" function="internal">
        <lane id=":13_9_0" index="0" speed="13.89" length="36.34" shape="1419.45,-695.20 1411.09,-694.08 1401.86,-691.16 1393.05,-687.05 1385.94,-682.39"/>
    </edge>
    <edge id=":13_10" function="internal">
        <lane id=":13_10_0" index="0" speed="13.89" length="41.47" shape="1419.45,-695.20 1377.98,-695.20"/>
    </edge>
    <edge id=":13_11" function="internal">
        <lane id=":13_11_0" index="0" speed="5.58" length="7.01" shape="1419.45,-695.20 1415.85,-697.60 1414.65,-700.00"/>
    </edge>
    <edge id=":13_12" function="internal">
        <lane id=":13_12_0" index="0" speed="7.42" length="7.71" shape="1419.45,-698.40 1413.32,-697.71 1412.08,-696.80"/>
    </edge>
    <edge id=":13_13" function="internal">
        <lane id=":13_13_0" index="0" speed="13.89" length="9.99" shape="1419.45,-698.40 1410.77,-697.17 1409.61,-696.80"/>
    </edge>
    <edge id=":13_14" function="internal">
        <lane id=":13_14_0" index="0" speed="13.89" length="41.47" shape="1419.45,-698.40 1377.98,-698.40"/>
    </edge>
    <edge id=":13_15" function="internal">
        <lane id=":13_15_0" index="0" speed="3.65" length="2.34" shape="1419.45,-698.40 1418.25,-699.20 1417.85,-700.00"/>
    </edge>
    <edge id=":13_32" function="internal">
        <lane id=":13_32_0" index="0" speed="5.58" length="7.01" shape="1414.65,-700.00 1415.85,-702.40 1419.45,-704.80"/>
    </edge>
    <edge id=":13_33" function="internal">
        <lane id=":13_33_0" index="0" speed="7.42" length="11.60" shape="1412.08,-696.80 1410.52,-695.64 1411.04,-692.20 1414.89,-687.38"/>
    </edge>
    <edge id=":13_34" function="internal">
        <lane id=":13_34_0" index="0" speed="13.89" length="28.47" shape="1409.61,-696.80 1400.85,-694.00 1391.34,-689.64 1383.93,-684.87"/>
    </edge>
    <edge id=":13_35" function="internal">
        <lane id=":13_35_0" index="0" speed="3.65" length="2.34" shape="1417.85,-700.00 1418.25,-700.80 1419.45,-701.60"/>
    </edge>
    <edge id=":13_16" function="internal">
        <lane id=":13_16_0" index="0" speed="13.89" length="41.47" shape="1377.98,-704.80 1419.45,-704.80"/>
    </edge>
    <edge id=":13_17" function="internal">
        <lane id=":13_17_0" index="0" speed="13.89" length="24.43" shape="1377.98,-704.80 1389.43,-703.85 1399.78,-701.01 1401.75,-700.00"/>
    </edge>
    <edge id=":13_18" function="internal">
        <lane id=":13_18_0" index="0" speed="9.16" length="11.72" shape="1377.98,-704.80 1386.24,-702.47 1388.18,-700.00"/>
    </edge>
    <edge id=":13_19" function="internal">