<?xml version="1.0" encoding="UTF-8"?>

<!-- generated on Mon 15 Feb 2021 02:28:31 AM IST by Eclipse SUMO netedit Version 1.8.0
<configuration xmlns:xsi="http://www.w3.org/2001/XMLSchema-instance" xsi:noNamespaceSchemaLocation="http://sumo.dlr.de/xsd/netconvertConfiguration.xsd">

    <input>
        <sumo-net-file value="/home/dikshant/github/pat_code/maps/first.net.xml"/>
    </input>

    <output>
        <output-file value="/home/dikshant/github/pat_code/maps/first.net.xml"/>
    </output>

    <processing>
        <geometry.min-radius.fix.railways value="false"/>
        <geometry.max-grade.fix value="false"/>
        <offset.disable-normalization value="true"/>
        <lefthand value="false"/>
    </processing>

    <junctions>
        <no-turnarounds value="true"/>
        <junctions.corner-detail value="5"/>
        <junctions.limit-turn-speed value="5.5"/>
        <rectangular-lane-cut value="false"/>
    </junctions>

    <pedestrian>
        <walkingareas value="false"/>
    </pedestrian>

    <report>
        <aggregate-warnings value="5"/>
    </report>

</configuration>
-->

<net version="1.6" junctionCornerDetail="5" limitTurnSpeed="5.50" xmlns:xsi="http://www.w3.org/2001/XMLSchema-instance" xsi:noNamespaceSchemaLocation="http://sumo.dlr.de/xsd/net_file.xsd">

    <location netOffset="0.00,0.00" convBoundary="-103.20,-400.00,400.00,100.00" origBoundary="-10000000000.00,-10000000000.00,10000000000.00,10000000000.00" projParameter="!"/>

    <edge id=":0_0" function="internal">
        <lane id=":0_0_0" index="0" speed="8.96" length="18.06" shape="-104.80,-393.60 -104.10,-398.50 -102.00,-402.00 -98.50,-404.10 -93.60,-404.80"/>
    </edge>
    <edge id=":0_1" function="internal">
        <lane id=":0_1_0" index="0" speed="5.58" length="8.43" shape="-104.80,-393.60 -102.40,-397.20 -100.00,-398.40 -98.73,-397.76"/>
    </edge>
    <edge id=":0_2" function="internal">
        <lane id=":0_2_0" index="0" speed="7.66" length="12.90" shape="-101.60,-393.60 -101.10,-397.10 -99.60,-399.60 -97.10,-401.10 -93.60,-401.60"/>
    </edge>
    <edge id=":0_3" function="internal">
        <lane id=":0_3_0" index="0" speed="3.65" length="2.56" shape="-101.60,-393.60 -100.80,-394.80 -100.00,-395.20 -99.80,-395.10"/>
    </edge>
    <edge id=":0_8" function="internal">
        <lane id=":0_8_0" index="0" speed="5.58" length="5.59" shape="-98.73,-397.76 -97.60,-397.20 -95.20,-393.60"/>
    </edge>
    <edge id=":0_9" function="internal">
        <lane id=":0_9_0" index="0" speed="3.65" length="2.12" shape="-99.80,-395.10 -99.20,-394.80 -98.40,-393.60"/>
    </edge>
    <edge id=":0_4" function="internal">
        <lane id=":0_4_0" index="0" speed="3.90" length="2.58" shape="-93.60,-395.20 -94.30,-395.10 -94.80,-394.80 -95.10,-394.30 -95.20,-393.60"/>
    </edge>
    <edge id=":0_5" function="internal">
        <lane id=":0_5_0" index="0" speed="5.58" length="5.68" shape="-93.60,-395.20 -97.20,-397.60 -97.81,-398.81"/>
    </edge>
    <edge id=":0_6" function="internal">
        <lane id=":0_6_0" index="0" speed="6.08" length="7.74" shape="-93.60,-398.40 -95.70,-398.10 -97.20,-397.20 -98.10,-395.70 -98.40,-393.60"/>
    </edge>
    <edge id=":0_7" function="internal">
        <lane id=":0_7_0" index="0" speed="3.65" length="2.08" shape="-93.60,-398.40 -94.80,-399.20 -95.09,-399.77"/>
    </edge>
    <edge id=":0_10" function="internal">
        <lane id=":0_10_0" index="0" speed="5.58" length="8.34" shape="-97.81,-398.81 -98.40,-400.00 -97.20,-402.40 -93.60,-404.80"/>
    </edge>
    <edge id=":0_11" function="internal">
        <lane id=":0_11_0" index="0" speed="3.65" length="2.59" shape="-95.09,-399.77 -95.20,-400.00 -94.80,-400.80 -93.60,-401.60"/>
    </edge>
    <edge id=":1_0" function="internal">
        <lane id=":1_0_0" index="0" speed="6.51" length="9.03" shape="95.20,-389.60 94.85,-392.05 93.80,-393.80 92.05,-394.85 89.60,-395.20"/>
    </edge>
    <edge id=":1_1" function="internal">
        <lane id=":1_1_0" index="0" speed="10.36" length="24.51" shape="95.20,-389.60 96.15,-396.25 99.00,-401.00 103.75,-403.85 110.40,-404.80"/>
    </edge>
    <edge id=":1_2" function="internal">
        <lane id=":1_2_0" index="0" speed="5.58" length="14.02" shape="95.20,-389.60 97.60,-393.20 100.00,-394.40 102.40,-393.20 104.80,-389.60"/>
    </edge>
    <edge id=":1_3" function="internal">
        <lane id=":1_3_0" index="0" speed="8.00" length="14.19" shape="98.40,-389.60 97.85,-393.45 96.20,-396.20 93.45,-397.85 89.60,-398.40"/>
    </edge>
    <edge id=":1_4" function="internal">
        <lane id=":1_4_0" index="0" speed="9.26" length="19.35" shape="98.40,-389.60 99.15,-394.85 101.40,-398.60 105.15,-400.85 110.40,-401.60"/>
    </edge>
    <edge id=":1_5" function="internal">
        <lane id=":1_5_0" index="0" speed="3.65" length="4.67" shape="98.40,-389.60 99.20,-390.80 100.00,-391.20 100.80,-390.80 101.60,-389.60"/>
    </edge>
    <edge id=":1_6" function="internal">
        <lane id=":1_6_0" index="0" speed="6.51" length="9.03" shape="110.40,-395.20 107.95,-394.85 106.20,-393.80 105.15,-392.05 104.80,-389.60"/>
    </edge>
    <edge id=":1_7" function="internal">
        <lane id=":1_7_0" index="0" speed="13.89" length="20.80" shape="110.40,-395.20 89.60,-395.20"/>
    </edge>
    <edge id=":1_8" function="internal">
        <lane id=":1_8_0" index="0" speed="5.58" length="7.01" shape="110.40,-395.20 106.80,-397.60 105.60,-400.00"/>
    </edge>
    <edge id=":1_9" function="internal">
        <lane id=":1_9_0" index="0" speed="8.00" length="5.93" shape="110.40,-398.40 106.55,-397.85 104.80,-396.80"/>
    </edge>
    <edge id=":1_10" function="internal">
        <lane id=":1_10_0" index="0" speed="13.89" length="20.80" shape="110.40,-398.40 89.60,-398.40"/>
    </edge>
    <edge id=":1_11" function="internal">
        <lane id=":1_11_0" index="0" speed="3.65" length="2.34" shape="110.40,-398.40 109.20,-399.20 108.80,-400.00"/>
    </edge>
    <edge id=":1_18" function="internal">
        <lane id=":1_18_0" index="0" speed="5.58" length="7.01" shape="105.60,-400.00 106.80,-402.40 110.40,-404.80"/>
    </edge>
    <edge id=":1_19" function="internal">
        <lane id=":1_19_0" index="0" speed="8.00" length="8.26" shape="104.80,-396.80 103.80,-396.20 102.15,-393.45 101.60,-389.60"/>
    </edge>
    <edge id=":1_20" function="internal">
        <lane id=":1_20_0" index="0" speed="3.65" length="2.34" shape="108.80,-400.00 109.20,-400.80 110.40,-401.60"/>
    </edge>
    <edge id=":1_12" function="internal">
        <lane id=":1_12_0" index="0" speed="13.89" length="20.80" shape="89.60,-404.80 110.40,-404.80"/>
    </edge>
    <edge id=":1_13" function="internal">
        <lane id=":1_13_0" index="0" speed="10.36" length="13.42" shape="89.60,-404.80 96.25,-403.85 101.00,-401.00 101.60,-400.00"/>
    </edge>
    <edge id=":1_14" function="internal">
        <lane id=":1_14_0" index="0" speed="5.58" length="7.01" shape="89.60,-404.80 93.20,-402.40 94.40,-400.00"/>
    </edge>
    <edge id=":1_15" function="internal">
        <lane id=":1_15_0" index="0" speed="13.89" length="20.80" shape="89.60,-401.60 110.40,-401.60"/>
    </edge>
    <edge id=":1_16" function="internal">
        <lane id=":1_16_0" index="0" speed="9.26" length="6.96" shape="89.60,-401.60 94.85,-400.85 96.27,-400.00"/>
    </edge>
    <edge id=":1_17" function="internal">
        <lane id=":1_17_0" index="0" speed="3.65" length="2.34" shape="89.60,-401.60 90.80,-400.80 91.20,-400.00"/>
    </edge>
    <edge id=":1_21" function="internal">
        <lane id=":1_21_0" index="0" speed="10.36" length="11.09" shape="101.60,-400.00 103.85,-396.25 104.80,-389.60"/>
    </edge>
    <edge id=":1_22" function="internal">
        <lane id=":1_22_0" index="0" speed="5.58" length="7.01" shape="94.40,-400.00 93.20,-397.60 89.60,-395.20"/>
    </edge>
    <edge id=":1_23" function="internal">
        <lane id=":1_23_0" index="0" speed="9.26" length="12.40" shape="96.27,-400.00 98.60,-398.60 100.85,-394.85 101.60,-389.60"/>
    </edge>
    <edge id=":1_24" function="internal">
        <lane id=":1_24_0" index="0" speed="3.65" length="2.34" shape="91.20,-400.00 90.80,-399.20 89.60,-398.40"/>
    </edge>
    <edge id=":10_0" function="internal">
        <lane id=":10_0_0" index="0" speed="13.89" length="20.80" shape="-104.80,-89.60 -104.80,-110.40"/>
    </edge>
    <edge id=":10_1" function="internal">
        <lane id=":10_1_0" index="0" speed="10.36" length="13.42" shape="-104.80,-89.60 -103.85,-96.25 -101.00,-101.00 -100.00,-101.60"/>
    </edge>
    <edge id=":10_2" function="internal">
        <lane id=":10_2_0" index="0" speed="5.58" length="7.01" shape="-104.80,-89.60 -102.40,-93.20 -100.00,-94.40"/>
    </edge>
    <edge id=":10_3" function="internal">
        <lane id=":10_3_0" index="0" speed="13.89" length="20.80" shape="-101.60,-89.60 -101.60,-110.40"/>
    </edge>
    <edge id=":10_4" function="internal">
        <lane id=":10_4_0" index="0" speed="9.26" length="6.96" shape="-101.60,-89.60 -100.85,-94.85 -100.00,-96.27"/>
    </edge>
    <edge id=":10_5" function="internal">
        <lane id=":10_5_0" index="0" speed="3.65" length="2.34" shape="-101.60,-89.60 -100.80,-90.80 -100.00,-91.20"/>
    </edge>
    <edge id=":10_18" function="internal">
        <lane id=":10_18_0" index="0" speed="10.36" length="11.09" shape="-100.00,-101.60 -96.25,-103.85 -89.60,-104.80"/>
    </edge>
    <edge id=":10_19" function="internal">
        <lane id=":10_19_0" index="0" speed="5.58" length="7.01" shape="-100.00,-94.40 -97.60,-93.20 -95.20,-89.60"/>
    </edge>
    <edge id=":10_20" function="internal">
        <lane id=":10_20_0" index="0" speed="9.26" length="12.40" shape="-100.00,-96.27 -98.60,-98.60 -94.85,-100.85 -89.60,-101.60"/>
    </edge>
    <edge id=":10_21" function="internal">
        <lane id=":10_21_0" index="0" speed="3.65" length="2.34" shape="-100.00,-91.20 -99.20,-90.80 -98.40,-89.60"/>
    </edge>
    <edge id=":10_6" function="internal">
        <lane id=":10_6_0" index="0" speed="6.51" length="9.03" shape="-89.60,-95.20 -92.05,-94.85 -93.80,-93.80 -94.85,-92.05 -95.20,-89.60"/>
    </edge>
    <edge id=":10_7" function="internal">
        <lane id=":10_7_0" index="0" speed="10.36" length="24.51" shape="-89.60,-95.20 -96.25,-96.15 -101.00,-99.00 -103.85,-103.75 -104.80,-110.40"/>
    </edge>
    <edge id=":10_8" function="internal">
        <lane id=":10_8_0" index="0" speed="5.58" length="14.02" shape="-89.60,-95.20 -93.20,-97.60 -94.40,-100.00 -93.20,-102.40 -89.60,-104.80"/>
    </edge>
    <edge id=":10_9" function="internal">
        <lane id=":10_9_0" index="0" speed="8.00" length="14.19" shape="-89.60,-98.40 -93.45,-97.85 -96.20,-96.20 -97.85,-93.45 -98.40,-89.60"/>
    </edge>
    <edge id=":10_10" function="internal">
        <lane id=":10_10_0" index="0" speed="9.26" length="19.35" shape="-89.60,-98.40 -94.85,-99.15 -98.60,-101.40 -100.85,-105.15 -101.60,-110.40"/>
    </edge>
    <edge id=":10_11" function="internal">
        <lane id=":10_11_0" index="0" speed="3.65" length="4.67" shape="-89.60,-98.40 -90.80,-99.20 -91.20,-100.00 -90.80,-100.80 -89.60,-101.60"/>
    </edge>
    <edge id=":10_12" function="internal">
        <lane id=":10_12_0" index="0" speed="6.51" length="9.03" shape="-95.20,-110.40 -94.85,-107.95 -93.80,-106.20 -92.05,-105.15 -89.60,-104.80"/>
    </edge>
    <edge id=":10_13" function="internal">
        <lane id=":10_13_0" index="0" speed="13.89" length="20.80" shape="-95.20,-110.40 -95.20,-89.60"/>
    </edge>
    <edge id=":10_14" function="internal">
        <lane id=":10_14_0" index="0" speed="5.58" length="7.01" shape="-95.20,-110.40 -97.60,-106.80 -100.00,-105.60"/>
    </edge>
    <edge id=":10_15" function="internal">
        <lane id=":10_15_0" index="0" speed="8.00" length="5.93" shape="-98.40,-110.40 -97.85,-106.55 -96.80,-104.80"/>
    </edge>
    <edge id=":10_16" function="internal">
        <lane id=":10_16_0" index="0" speed="13.89" length="20.80" shape="-98.40,-110.40 -98.40,-89.60"/>
    </edge>
    <edge id=":10_17" function="internal">
        <lane id=":10_17_0" index="0" speed="3.65" length="2.34" shape="-98.40,-110.40 -99.20,-109.20 -100.00,-108.80"/>
    </edge>
    <edge id=":10_22" function="internal">
        <lane id=":10_22_0" index="0" speed="5.58" length="7.01" shape="-100.00,-105.60 -102.40,-106.80 -104.80,-110.40"/>
    </edge>
    <edge id=":10_23" function="internal">
        <lane id=":10_23_0" index="0" speed="8.00" length="8.26" shape="-96.80,-104.80 -96.20,-103.80 -93.45,-102.15 -89.60,-101.60"/>
    </edge>
    <edge id=":10_24" function="internal">
        <lane id=":10_24_0" index="0" speed="3.65" length="2.34" shape="-100.00,-108.80 -100.80,-109.20 -101.60,-110.40"/>
    </edge>
    <edge id=":11_0" function="internal">
        <lane id=":11_0_0" index="0" speed="6.51" length="9.03" shape="95.20,-89.60 94.85,-92.05 93.80,-93.80 92.05,-94.85 89.60,-95.20"/>
    </edge>
    <edge id=":11_1" function="internal">
        <lane id=":11_1_0" index="0" speed="13.89" length="20.80" shape="95.20,-89.60 95.20,-110.40"/>
    </edge>
    <edge id=":11_2" function="internal">
        <lane id=":11_2_0" index="0" speed="10.10" length="11.42" shape="95.20,-89.60 96.57,-95.00 100.00,-99.73"/>
    </edge>
    <edge id=":11_3" function="internal">
        <lane id=":11_3_0" index="0" speed="5.58" length="7.01" shape="95.20,-89.60 97.60,-93.20 100.00,-94.40"/>
    </edge>
    <edge id=":11_4" function="internal">
        <lane id=":11_4_0" index="0" speed="8.00" length="5.93" shape="98.40,-89.60 97.85,-93.45 96.80,-95.20"/>
    </edge>
    <edge id=":11_5" function="internal">
        <lane id=":11_5_0" index="0" speed="13.89" length="20.80" shape="98.40,-89.60 98.40,-110.40"/>
    </edge>
    <edge id=":11_6" function="internal">
        <lane id=":11_6_0" index="0" speed="9.02" length="5.28" shape="98.40,-89.60 99.48,-93.86 100.00,-94.58"/>
    </edge>
    <edge id=":11_7" function="internal">
        <lane id=":11_7_0" index="0" speed="3.65" length="2.34" shape="98.40,-89.60 99.20,-90.80 100.00,-91.20"/>
    </edge>
    <edge id=":11_30" function="internal">
        <lane id=":11_30_0" index="0" speed="10.10" length="11.80" shape="100.00,-99.73 100.11,-99.89 105.00,-103.43 110.40,-104.80"/>
    </edge>
    <edge id=":11_31" function="internal">
        <lane id=":11_31_0" index="0" speed="5.58" length="7.01" shape="100.00,-94.40 102.40,-93.20 104.80,-89.60"/>
    </edge>
    <edge id=":11_32" function="internal">
        <lane id=":11_32_0" index="0" speed="8.00" length="8.26" shape="96.80,-95.20 96.20,-96.20 93.45,-97.85 89.60,-98.40"/>
    </edge>
    <edge id=":11_33" function="internal">
        <lane id=":11_33_0" index="0" speed="9.02" length="13.05" shape="100.00,-94.58 102.28,-97.72 106.14,-100.52 110.40,-101.60"/>
    </edge>
    <edge id=":11_34" function="internal">
        <lane id=":11_34_0" index="0" speed="3.65" length="2.34" shape="100.00,-91.20 100.80,-90.80 101.60,-89.60"/>
    </edge>
    <edge id=":11_8" function="internal">
        <lane id=":11_8_0" index="0" speed="6.51" length="9.03" shape="110.40,-95.20 107.95,-94.85 106.20,-93.80 105.15,-92.05 104.80,-89.60"/>
    </edge>
    <edge id=":11_9" function="internal">
        <lane id=":11_9_0" index="0" speed="13.89" length="20.80" shape="110.40,-95.20 89.60,-95.20"/>
    </edge>
    <edge id=":11_10" function="internal">
        <lane id=":11_10_0" index="0" speed="10.10" length="23.22" shape="110.40,-95.20 105.00,-96.57 100.11,-100.11 96.57,-105.00 95.20,-110.40"/>
    </edge>
    <edge id=":11_11" function="internal">
        <lane id=":11_11_0" index="0" speed="5.58" length="14.02" shape="110.40,-95.20 106.80,-97.60 105.60,-100.00 106.80,-102.40 110.40,-104.80"/>
    </edge>
    <edge id=":11_12" function="internal">
        <lane id=":11_12_0" index="0" speed="8.00" length="14.19" shape="110.40,-98.40 106.55,-97.85 103.80,-96.20 102.15,-93.45 101.60,-89.60"/>
    </edge>
    <edge id=":11_13" function="internal">
        <lane id=":11_13_0" index="0" speed="13.89" length="20.80" shape="110.40,-98.40 89.60,-98.40"/>
    </edge>
    <edge id=":11_14" function="internal">
        <lane id=":11_14_0" index="0" speed="9.02" length="18.33" shape="110.40,-98.40 106.14,-99.48 102.28,-102.28 99.48,-106.14 98.40,-110.40"/>
    </edge>
    <edge id=":11_15" function="internal">
        <lane id=":11_15_0" index="0" speed="3.65" length="4.67" shape="110.40,-98.40 109.20,-99.20 108.80,-100.00 109.20,-100.80 110.40,-101.60"/>
    </edge>
    <edge id=":11_16" function="internal">
        <lane id=":11_16_0" index="0" speed="6.51" length="9.03" shape="104.80,-110.40 105.15,-107.95 106.20,-106.20 107.95,-105.15 110.40,-104.80"/>
    </edge>
    <edge id=":11_17" function="internal">
        <lane id=":11_17_0" index="0" speed="13.89" length="20.80" shape="104.80,-110.40 104.80,-89.60"/>
    </edge>
    <edge id=":11_18" function="internal">
        <lane id=":11_18_0" index="0" speed="8.00" length="5.93" shape="101.60,-110.40 102.15,-106.55 103.20,-104.80"/>
    </edge>
    <edge id=":11_19" function="internal">
        <lane id=":11_19_0" index="0" speed="13.89" length="20.80" shape="101.60,-110.40 101.60,-89.60"/>
    </edge>
    <edge id=":11_20" function="internal">
        <lane id=":11_20_0" index="0" speed="9.02" length="5.28" shape="101.60,-110.40 100.52,-106.14 100.00,-105.42"/>
    </edge>
    <edge id=":11_21" function="internal">
        <lane id=":11_21_0" index="0" speed="3.65" length="2.34" shape="101.60,-110.40 100.80,-109.20 100.00,-108.80"/>
    </edge>
    <edge id=":11_35" function="internal">
        <lane id=":11_35_0" index="0" speed="8.00" length="8.26" shape="103.20,-104.80 103.80,-103.80 106.55,-102.15 110.40,-101.60"/>
    </edge>
    <edge id=":11_36" function="internal">
        <lane id=":11_36_0" index="0" speed="9.02" length="13.05" shape="100.00,-105.42 97.72,-102.28 93.86,-99.48 89.60,-98.40"/>
    </edge>
    <edge id=":11_37" function="internal">
        <lane id=":11_37_0" index="0" speed="3.65" length="2.34" shape="100.00,-108.80 99.20,-109.20 98.40,-110.40"/>
    </edge>
    <edge id=":11_22" function="internal">
        <lane id=":11_22_0" index="0" speed="6.51" length="9.03" shape="89.60,-104.80 92.05,-105.15 93.80,-106.20 94.85,-107.95 95.20,-110.40"/>
    </edge>
    <edge id=":11_23" function="internal">
        <lane id=":11_23_0" index="0" speed="13.89" length="20.80" shape="89.60,-104.80 110.40,-104.80"/>
    </edge>
    <edge id=":11_24" function="internal">
        <lane id=":11_24_0" index="0" speed="10.10" length="23.22" shape="89.60,-104.80 95.00,-103.43 99.89,-99.89 103.43,-95.00 104.80,-89.60"/>
    </edge>
    <edge id=":11_25" function="internal">
        <lane id=":11_25_0" index="0" speed="5.58" length="14.02" shape="89.60,-104.80 93.20,-102.40 94.40,-100.00 93.20,-97.60 89.60,-95.20"/>
    </edge>
    <edge id=":11_26" function="internal">
        <lane id=":11_26_0" index="0" speed="8.00" length="14.19" shape="89.60,-101.60 93.45,-102.15 96.20,-103.80 97.85,-106.55 98.40,-110.40"/>
    </edge>
    <edge id=":11_27" function="internal">
        <lane id=":11_27_0" index="0" speed="13.89" length="20.80" shape="89.60,-101.60 110.40,-101.60"/>
    </edge>
    <edge id=":11_28" function="internal">
        <lane id=":11_28_0" index="0" speed="9.02" length="18.33" shape="89.60,-101.60 93.86,-100.52 97.72,-97.72 100.52,-93.86 101.60,-89.60"/>
    </edge>
    <edge id=":11_29" function="internal">
        <lane id=":11_29_0" index="0" speed="3.65" length="4.67" shape="89.60,-101.60 90.80,-100.80 91.20,-100.00 90.80,-99.20 89.60,-98.40"/>
    </edge>
    <edge id=":12_0" function="internal">
        <lane id=":12_0_0" index="0" speed="6.51" length="9.03" shape="195.20,-89.60 194.85,-92.05 193.80,-93.80 192.05,-94.85 189.60,-95.20"/>
    </edge>
    <edge id=":12_1" function="internal">
        <lane id=":12_1_0" index="0" speed="13.89" length="20.80" shape="195.20,-89.60 195.20,-110.40"/>
    </edge>
    <edge id=":12_2" function="internal">
        <lane id=":12_2_0" index="0" speed="10.10" length="7.47" shape="195.20,-89.60 196.57,-95.00 197.69,-96.54"/>
    </edge>
    <edge id=":12_3" function="internal">
        <lane id=":12_3_0" index="0" speed="5.58" length="7.01" shape="195.20,-89.60 197.60,-93.20 200.00,-94.40"/>
    </edge>
    <edge id=":12_4" function="internal">
        <lane id=":12_4_0" index="0" speed="8.00" length="5.93" shape="198.40,-89.60 197.85,-93.45 196.80,-95.20"/>
    </edge>
    <edge id=":12_5" function="internal">
        <lane id=":12_5_0" index="0" speed="13.89" length="20.80" shape="198.40,-89.60 198.40,-110.40"/>
    </edge>
    <edge id=":12_6" function="internal">
        <lane id=":12_6_0" index="0" speed="9.02" length="5.28" shape="198.40,-89.60 199.48,-93.86 200.00,-94.58"/>
    </edge>
    <edge id=":12_7" function="internal">
        <lane id=":12_7_0" index="0" speed="3.65" length="2.34" shape="198.40,-89.60 199.20,-90.80 200.00,-91.20"/>
    </edge>
    <edge id=":12_32" function="internal">
        <lane id=":12_32_0" index="0" speed="10.10" length="15.74" shape="197.69,-96.54 200.11,-99.89 205.00,-103.43 210.40,-104.80"/>
    </edge>
    <edge id=":12_33" function="internal">
        <lane id=":12_33_0" index="0" speed="5.58" length="7.01" shape="200.00,-94.40 202.40,-93.20 204.80,-89.60"/>
    </edge>
    <edge id=":12_34" function="internal">
        <lane id=":12_34_0" index="0" speed="8.00" length="8.26" shape="196.80,-95.20 196.20,-96.20 193.45,-97.85 189.60,-98.40"/>
    </edge>
    <edge id=":12_35" function="internal">
        <lane id=":12_35_0" index="0" speed="9.02" length="13.05" shape="200.00,-94.58 202.28,-97.72 206.14,-100.52 210.40,-101.60"/>
    </edge>
    <edge id=":12_36" function="internal">
        <lane id=":12_36_0" index="0" speed="3.65" length="2.34" shape="200.00,-91.20 200.80,-90.80 201.60,-89.60"/>
    </edge>
    <edge id=":12_8" function="internal">
        <lane id=":12_8_0" index="0" speed="6.51" length="9.03" shape="210.40,-95.20 207.95,-94.85 206.20,-93.80 205.15,-92.05 204.80,-89.60"/>
    </edge>
    <edge id=":12_9" function="internal">
        <lane id=":12_9_0" index="0" speed="13.89" length="20.80" shape="210.40,-95.20 189.60,-95.20"/>
    </edge>
    <edge id=":12_10" function="internal">
        <lane id=":12_10_0" index="0" speed="10.10" length="23.22" shape="210.40,-95.20 205.00,-96.57 200.11,-100.11 196.57,-105.00 195.20,-110.40"/>
    </edge>
    <edge id=":12_11" function="internal">
        <lane id=":12_11_0" index="0" speed="5.58" length="14.02" shape="210.40,-95.20 206.80,-97.60 205.60,-100.00 206.80,-102.40 210.40,-104.80"/>
    </edge>
    <edge id=":12_12" function="internal">
        <lane id=":12_12_0" index="0" speed="8.00" length="14.19" shape="210.40,-98.40 206.55,-97.85 203.80,-96.20 202.15,-93.45 201.60,-89.60"/>
    </edge>
    <edge id=":12_13" function="internal">
        <lane id=":12_13_0" index="0" speed="13.89" length="20.80" shape="210.40,-98.40 189.60,-98.40"/>
    </edge>
    <edge id=":12_14" function="internal">
        <lane id=":12_14_0" index="0" speed="9.02" length="18.33" shape="210.40,-98.40 206.14,-99.48 202.28,-102.28 199.48,-106.14 198.40,-110.40"/>
    </edge>
    <edge id=":12_15" function="internal">
        <lane id=":12_15_0" index="0" speed="3.65" length="4.67" shape="210.40,-98.40 209.20,-99.20 208.80,-100.00 209.20,-100.80 210.40,-101.60"/>
    </edge>
    <edge id=":12_16" function="internal">
        <lane id=":12_16_0" index="0" speed="6.51" length="9.03" shape="204.80,-110.40 205.15,-107.95 206.20,-106.20 207.95,-105.15 210.40,-104.80"/>
    </edge>
    <edge id=":12_17" function="internal">
        <lane id=":12_17_0" index="0" speed="13.89" length="20.80" shape="204.80,-110.40 204.80,-89.60"/>
    </edge>
    <edge id=":12_18" function="internal">
        <lane id=":12_18_0" index="0" speed="10.10" length="7.47" shape="204.80,-110.40 203.43,-105.00 202.31,-103.46"/>
    </edge>
    <edge id=":12_19" function="internal">
        <lane id=":12_19_0" index="0" speed="5.58" length="7.01" shape="204.80,-110.40 202.40,-106.80 200.00,-105.60"/>
    </edge>
    <edge id=":12_20" function="internal">
        <lane id=":12_20_0" index="0" speed="8.00" length="5.93" shape="201.60,-110.40 202.15,-106.55 203.20,-104.80"/>
    </edge>
    <edge id=":12_21" function="internal">
        <lane id=":12_21_0" index="0" speed="13.89" length="20.80" shape="201.60,-110.40 201.60,-89.60"/>
    </edge>
    <edge id=":12_22" function="internal">
        <lane id=":12_22_0" index="0" speed="9.02" length="5.28" shape="201.60,-110.40 200.52,-106.14 200.00,-105.42"/>
    </edge>
    <edge id=":12_23" function="internal">
        <lane id=":12_23_0" index="0" speed="3.65" length="2.34" shape="201.60,-110.40 200.80,-109.20 200.00,-108.80"/>
    </edge>
    <edge id=":12_37" function="internal">
        <lane id=":12_37_0" index="0" speed="10.10" length="15.74" shape="202.31,-103.46 199.89,-100.11 195.00,-96.57 189.60,-95.20"/>
    </edge>
    <edge id=":12_38" function="internal">
        <lane id=":12_38_0" index="0" speed="5.58" length="7.01" shape="200.00,-105.60 197.60,-106.80 195.20,-110.40"/>
    </edge>
    <edge id=":12_39" function="internal">
        <lane id=":12_39_0" index="0" speed="8.00" length="8.26" shape="203.20,-104.80 203.80,-103.80 206.55,-102.15 210.40,-101.60"/>
    </edge>
    <edge id=":12_40" function="internal">
        <lane id=":12_40_0" index="0" speed="9.02" length="13.05" shape="200.00,-105.42 197.72,-102.28 193.86,-99.48 189.60,-98.40"/>
    </edge>
    <edge id=":12_41" function="internal">
        <lane id=":12_41_0" index="0" speed="3.65" length="2.34" shape="200.00,-108.80 199.20,-109.20 198.40,-110.40"/>
    </edge>
    <edge id=":12_24" function="internal">
        <lane id=":12_24_0" index="0" speed="6.51" length="9.03" shape="189.60,-104.80 192.05,-105.15 193.80,-106.20 194.85,-107.95 195.20,-110.40"/>
    </edge>
    <edge id=":12_25" function="internal">
        <lane id=":12_25_0" index="0" speed="13.89" length="20.80" shape="189.60,-104.80 210.40,-104.80"/>
    </edge>
    <edge id=":12_26" function="internal">
        <lane id=":12_26_0" index="0" speed="10.10" length="23.22" shape="189.60,-104.80 195.00,-103.43 199.89,-99.89 203.43,-95.00 204.80,-89.60"/>
    </edge>
    <edge id=":12_27" function="internal">
        <lane id=":12_27_0" index="0" speed="5.58" length="14.02" shape="189.60,-104.80 193.20,-102.40 194.40,-100.00 193.20,-97.60 189.60,-95.20"/>
    </edge>
    <edge id=":12_28" function="internal">
        <lane id=":12_28_0" index="0" speed="8.00" length="14.19" shape="189.60,-101.60 193.45,-102.15 196.20,-103.80 197.85,-106.55 198.40,-110.40"/>
    </edge>
    <edge id=":12_29" function="internal">
        <lane id=":12_29_0" index="0" speed="13.89" length="20.80" shape="189.60,-101.60 210.40,-101.60"/>
    </edge>
    <edge id=":12_30" function="internal">
        <lane id=":12_30_0" index="0" speed="9.02" length="18.33" shape="189.60,-101.60 193.86,-100.52 197.72,-97.72 200.52,-93.86 201.60,-89.60"/>
    </edge>
    <edge id=":12_31" function="internal">
        <lane id=":12_31_0" index="0" speed="3.65" length="4.67" shape="189.60,-101.60 190.80,-100.80 191.20,-100.00 190.80,-99.20 189.60,-98.40"/>
    </edge>
    <edge id=":13_0" function="internal">
        <lane id=":13_0_0" index="0" speed="6.51" length="9.03" shape="295.20,-89.60 294.85,-92.05 293.80,-93.80 292.05,-94.85 289.60,-95.20"/>
    </edge>
    <edge id=":13_1" function="internal">
        <lane id=":13_1_0" index="0" speed="13.89" length="20.80" shape="295.20,-89.60 295.20,-110.40"/>
    </edge>
    <edge id=":13_2" function="internal">
        <lane id=":13_2_0" index="0" speed="10.10" length="7.47" shape="295.20,-89.60 296.57,-95.00 297.69,-96.54"/>
    </edge>
    <edge id=":13_3" function="internal">
        <lane id=":13_3_0" index="0" speed="5.58" length="7.01" shape="295.20,-89.60 297.60,-93.20 300.00,-94.40"/>
    </edge>
    <edge id=":13_4" function="internal">
        <lane id=":13_4_0" index="0" speed="8.00" length="5.93" shape="298.40,-89.60 297.85,-93.45 296.80,-95.20"/>
    </edge>
    <edge id=":13_5" function="internal">
        <lane id=":13_5_0" index="0" speed="13.89" length="20.80" shape="298.40,-89.60 298.40,-110.40"/>
    </edge>
    <edge id=":13_6" function="internal">
        <lane id=":13_6_0" index="0" speed="9.02" length="5.28" shape="298.40,-89.60 299.48,-93.86 300.00,-94.58"/>
    </edge>
    <edge id=":13_7" function="internal">
        <lane id=":13_7_0" index="0" speed="3.65" length="2.34" shape="298.40,-89.60 299.20,-90.80 300.00,-91.20"/>
    </edge>
    <edge id=":13_32" function="internal">
        <lane id=":13_32_0" index="0" speed="10.10" length="15.74" shape="297.69,-96.54 300.11,-99.89 305.00,-103.43 310.40,-104.80"/>
    </edge>
    <edge id=":13_33" function="internal">
        <lane id=":13_33_0" index="0" speed="5.58" length="7.01" shape="300.00,-94.40 302.40,-93.20 304.80,-89.60"/>
    </edge>
    <edge id=":13_34" function="internal">
        <lane id=":13_34_0" index="0" speed="8.00" length="8.26" shape="296.80,-95.20 296.20,-96.20 293.45,-97.85 289.60,-98.40"/>
    </edge>
    <edge id=":13_35" function="internal">
        <lane id=":13_35_0" index="0" speed="9.02" length="13.05" shape="300.00,-94.58 302.28,-97.72 306.14,-100.52 310.40,-101.60"/>
    </edge>
    <edge id=":13_36" function="internal">
        <lane id=":13_36_0" index="0" speed="3.65" length="2.34" shape="300.00,-91.20 300.80,-90.80 301.60,-89.60"/>
    </edge>
    <edge id=":13_8" function="internal">
        <lane id=":13_8_0" index="0" speed="6.51" length="9.03" shape="310.40,-95.20 307.95,-94.85 306.20,-93.80 305.15,-92.05 304.80,-89.60"/>
    </edge>
    <edge id=":13_9" function="internal">
        <lane id=":13_9_0" index="0" speed="13.89" length="20.80" shape="310.40,-95.20 289.60,-95.20"/>
    </edge>