<?xml version="1.0" encoding="UTF-8"?>

<!-- generated on Thu 11 Mar 2021 04:59:06 PM IST by Eclipse SUMO netedit Version 1.8.0
<configuration xmlns:xsi="http://www.w3.org/2001/XMLSchema-instance" xsi:noNamespaceSchemaLocation="http://sumo.dlr.de/xsd/netconvertConfiguration.xsd">

    <input>
        <sumo-net-file value="/home/dikshant/github/pat_code/maps/grid_5_5_final.net.xml"/>
    </input>

    <output>
        <output-file value="/home/dikshant/github/pat_code/maps/grid_5_5_final.net.xml"/>
        <plain-output-prefix value="/home/dikshant/github/pat_code/maps/grid_5_5_final.net.xml"/>
    </output>

    <processing>
        <geometry.min-radius.fix.railways value="false"/>
        <geometry.max-grade.fix value="false"/>
        <offset.disable-normalization value="true"/>
        <lefthand value="false"/>
    </processing>

    <junctions>
        <no-turnarounds value="true"/>
        <junctions.corner-detail value="5"/>
        <junctions.limit-turn-speed value="5.5"/>
        <rectangular-lane-cut value="false"/>
    </junctions>

    <pedestrian>
        <walkingareas value="false"/>
    </pedestrian>

    <report>
        <aggregate-warnings value="5"/>
    </report>

</configuration>
-->

<edges version="1.6" xmlns:xsi="http://www.w3.org/2001/XMLSchema-instance" xsi:noNamespaceSchemaLocation="http://sumo.dlr.de/xsd/edges_file.xsd">
    <edge id="0to1" from="0" to="1" priority="-1" numLanes="2" speed="13.89"/>
    <edge id="0to5" from="0" to="5" priority="-1" numLanes="2" speed="13.89"/>
    <edge id="10to11" from="10" to="11" priority="-1" numLanes="2" speed="13.89"/>
    <edge id="10to15" from="10" to="15" priority="-1" numLanes="2" speed="13.89"/>
    <edge id="10to5" from="10" to="5" priority="-1" numLanes="2" speed="13.89"/>
    <edge id="11to10" from="11" to="10" priority="-1" numLanes="2" speed="13.89"/>
    <edge id="11to12" from="11" to="12" priority="-1" numLanes="2" speed="13.89"/>
    <edge id="11to16" from="11" to="16" priority="-1" numLanes="2" speed="13.89"/>
    <edge id="11to6" from="11" to="6" priority="-1" numLanes="2" speed="13.89"/>
    <edge id="12to11" from="12" to="11" priority="-1" numLanes="2" speed="13.89"/>
    <edge id="12to13" from="12" to="13" priority="-1" numLanes="2" speed="13.89"/>
    <edge id="12to17" from="12" to="17" priority="-1" numLanes="2" speed="13.89"/>
    <edge id="12to7" from="12" to="7" priority="-1" numLanes="2" speed="13.89"/>
    <edge id="13to12" from="13" to="12" priority="-1" numLanes="2" speed="13.89"/>
    <edge id="13to14" from="13" to="14" priority="-1" numLanes="2" speed="13.89"/>
    <edge id="13to18" from="13" to="18" priority="-1" numLanes="2" speed="13.89"/>
    <edge id="13to8" from="13" to="8" priority="-1" numLanes="2" speed="13.89"/>
    <edge id="14to13" from="14" to="13" priority="-1" numLanes="2" speed="13.89"/>
    <edge id="14to19" from="14" to="19" priority="-1" numLanes="2" speed="13.89"/>
    <edge id="14to9" from="14" to="9" priority="-1" numLanes="2" speed="13.89"/>
    <edge id="15to10" from="15" to="10" priority="-1" numLanes="2" speed="13.89"/>
    <edge id="15to16" from="15" to="16" priority="-1" numLanes="2" speed="13.89"/>
    <edge id="15to20" from="15" to="20" priority="-1" numLanes="2" speed="13.89"/>
    <edge id="16to11" from="16" to="11" priority="-1" numLanes="2" speed="13.89"/>
    <edge id="16to15" from="16" to="15" priority="-1" numLanes="2" speed="13.89"/>
    <edge id="16to17" from="16" to="17" priority="-1" numLanes="2" speed="13.89"/>
    <edge id="16to21" from="16" to="21" priority="-1" numLanes="2" speed="13.89"/>
    <edge id="17to12" from="17" to="12" priority="-1" numLanes="2" speed="13.89"/>
    <edge id="17to16" from="17" to="16" priority="-1" numLanes="2" speed="13.89"/>
    <edge id="17to18" from="17" to="18" priority="-1" numLanes="2" speed="13.89"/>
    <edge id="17to22" from="17" to="22" priority="-1" numLanes="2" speed="13.89"/>
    <edge id="18to13" from="18" to="13" priority="-1" numLanes="2" speed="13.89"/>
    <edge id="18to17" from="18" to="17" priority="-1" numLanes="2" speed="13.89"/>
    <edge id="18to19" from="18" to="19" priority="-1" numLanes="2" speed="13.89"/>
    <edge id="18to23" from="18" to="23" priority="-1" numLanes="2" speed="13.89"/>
    <edge id="19to14" from="19" to="14" priority="-1" numLanes="2" speed="13.89"/>
    <edge id="19to18" from="19" to="18" priority="-1" numLanes="2" speed="13.89"/>
    <edge id="19to24" from="19" to="24" priority="-1" numLanes="2" speed="13.89"/>
    <edge id="1to0" from="1" to="0" priority="-1" numLanes="2" speed="13.89"/>
    <edge id="1to2" from="1" to="2" priority="-1" numLanes="2" speed="13.89"/>
    <edge id="1to6" from="1" to="6" priority="-1" numLanes="2" speed="13.89"/>
    <edge id="20to15" from="20" to="15" priority="-1" numLanes="2" speed="13.89"/>
    <edge id="20to21" from="20" to="21" priority="-1" numLanes="2" speed="13.89"/>
    <edge id="21to16" from="21" to="16" priority="-1" numLanes="2" speed="13.89"/>
    <edge id="21to20" from="21" to="20" priority="-1" numLanes="2" speed="13.89"/>
    <edge id="21to22" from="21" to="22" priority="-1" numLanes="2" speed="13.89"/>
    <edge id="22to17" from="22" to="17" priority="-1" numLanes="2" speed="13.89"/>
    <edge id="22to21" from="22" to="21" priority="-1" numLanes="2" speed="13.89"/>
    <edge id="22to23" from="22" to="23" priority="-1" numLanes="2" speed="13.89"/>
    <edge id="23to18" from="23" to="18" priority="-1" numLanes="2" speed="13.89"/>
    <edge id="23to22" from="23" to="22" priority="-1" numLanes="2" speed="13.89"/>
    <edge id="23to24" from="23" to="24" priority="-1" numLanes="2" speed="13.89"/>
    <edge id="24to19" from="24" to="19" priority="-1" numLanes="2" speed="13.89"/>
    <edge id="24to23" from="24" to="23" priority="-1" numLanes="2" speed="13.89"/>
    <edge id="2to1" from="2" to="1" priority="-1" numLanes="2" speed="13.89"/>
    <edge id="2to3" from="2" to="3" priority="-1" numLanes="2" speed="13.89"/>
    <edge id="2to7" from="2" to="7" priority="-1" numLanes="2" speed="13.89"/>
    <edge id="3to2" from="3" to="2" priority="-1" numLanes="2" speed="13.89"/>
    <edge id="3to4" from="3" to="4" priority="-1" numLanes="2" speed="13.89"/>
    <edge id="3to8" from="3" to="8" priority="-1" numLanes="2" speed="13.89"/>
    <edge id="4to3" from="4" to="3" priority="-1" numLanes="2" speed="13.89"/>
    <edge id="4to9" from="4" to="9" priority="-1" numLanes="2" speed="13.89"/>
    <edge id="5to0" from="5" to="0" priority="-1" numLanes="2" speed="13.89"/>
    <edge id="5to10" from="5" to="10" priority="-1" numLanes="2" speed="13.89"/>
    <edge id="5to6" from="5" to="6" priority="-1" numLanes="2" speed="13.89"/>
    <edge id="6to1" from="6" to="1" priority="-1" numLanes="2" speed="13.89"/>
    <edge id="6to11" from="6" to="11" priority="-1" numLanes="2" speed="13.89"/>
    <edge id="6to5" from="6" to="5" priority="-1" numLanes="2" speed="13.89"/>
    <edge id="6to7" from="6" to="7" priority="-1" numLanes="2" speed="13.89"/>
    <edge id="7to12" from="7" to="12" priority="-1" numLanes="2" speed="13.89"/>
    <edge id="7to2" from="7" to="2" priority="-1" numLanes="2" speed="13.89"/>
    <edge id="7to6" from="7" to="6" priority="-1" numLanes="2" speed="13.89"/>
    <edge id="7to8" from="7" to="8" priority="-1" numLanes="2" speed="13.89"/>
    <edge id="8to13" from="8" to="13" priority="-1" numLanes="2" speed="13.89"/>
    <edge id="8to3" from="8" to="3" priority="-1" numLanes="2" speed="13.89"/>
    <edge id="8to7" from="8" to="7" priority="-1" numLanes="2" speed="13.89"/>
    <edge id="8to9" from="8" to="9" priority="-1" numLanes="2" speed="13.89"/>
    <edge id="9to14" from="9" to="14" priority="-1" numLanes="2" speed="13.89"/>
    <edge id="9to4" from="9" to="4" priority="-1" numLanes="2" speed="13.89"/>
    <edge id="9to8" from="9" to="8" priority="-1" numLanes="2" speed="13.89"/>
</edges>
