<?xml version="1.0" encoding="UTF-8"?>

<!-- generated on Thu 11 Mar 2021 04:57:56 PM IST by Eclipse SUMO netedit Version 1.8.0
<configuration xmlns:xsi="http://www.w3.org/2001/XMLSchema-instance" xsi:noNamespaceSchemaLocation="http://sumo.dlr.de/xsd/netconvertConfiguration.xsd">

    <input>
        <sumo-net-file value="/home/dikshant/github/pat_code/maps/grid_5_5_final.net.xml"/>
    </input>

    <output>
        <output-file value="/home/dikshant/github/pat_code/maps/grid_5_5_final.net.xml"/>
    </output>

    <processing>
        <geometry.min-radius.fix.railways value="false"/>
        <geometry.max-grade.fix value="false"/>
        <offset.disable-normalization value="true"/>
        <lefthand value="false"/>
    </processing>

    <junctions>
        <no-turnarounds value="true"/>
        <junctions.corner-detail value="5"/>
        <junctions.limit-turn-speed value="5.5"/>
        <rectangular-lane-cut value="false"/>
    </junctions>

    <pedestrian>
        <walkingareas value="false"/>
    </pedestrian>

    <report>
        <aggregate-warnings value="5"/>
    </report>

</configuration>
-->

<net version="1.6" junctionCornerDetail="5" limitTurnSpeed="5.50" xmlns:xsi="http://www.w3.org/2001/XMLSchema-instance" xsi:noNamespaceSchemaLocation="http://sumo.dlr.de/xsd/net_file.xsd">

    <location netOffset="0.00,0.00" convBoundary="0.00,0.00,400.19,400.00" origBoundary="0.00,0.00,400.00,400.00" projParameter="!"/>

    <edge id=":0_0" function="internal">
        <lane id=":0_0_0" index="0" speed="8.96" length="18.11" shape="-4.80,6.42 -4.10,1.51 -1.99,-2.00 1.52,-4.09 6.44,-4.78"/>
    </edge>
    <edge id=":0_1" function="internal">
        <lane id=":0_1_0" index="0" speed="5.58" length="8.43" shape="-4.80,6.42 -2.40,2.82 -0.00,1.62 1.27,2.26"/>
    </edge>
    <edge id=":0_2" function="internal">
        <lane id=":0_2_0" index="0" speed="7.66" length="12.93" shape="-1.60,6.42 -1.10,2.91 0.41,0.41 2.91,-1.09 6.43,-1.58"/>
    </edge>
    <edge id=":0_3" function="internal">
        <lane id=":0_3_0" index="0" speed="3.65" length="2.56" shape="-1.60,6.42 -0.80,5.22 -0.00,4.82 0.20,4.92"/>
    </edge>
    <edge id=":0_8" function="internal">
        <lane id=":0_8_0" index="0" speed="5.58" length="5.59" shape="1.27,2.26 2.40,2.82 4.80,6.42"/>
    </edge>
    <edge id=":0_9" function="internal">
        <lane id=":0_9_0" index="0" speed="3.65" length="2.11" shape="0.20,4.92 0.80,5.22 1.60,6.42"/>
    </edge>
    <edge id=":0_4" function="internal">
        <lane id=":0_4_0" index="0" speed="3.90" length="2.59" shape="6.41,4.82 5.70,4.92 5.20,5.22 4.90,5.72 4.80,6.42"/>
    </edge>
    <edge id=":0_5" function="internal">
        <lane id=":0_5_0" index="0" speed="5.58" length="5.68" shape="6.41,4.82 2.81,2.41 2.21,1.19"/>
    </edge>
    <edge id=":0_6" function="internal">
        <lane id=":0_6_0" index="0" speed="6.08" length="7.76" shape="6.42,1.62 4.31,1.92 2.80,2.81 1.90,4.32 1.60,6.42"/>
    </edge>
    <edge id=":0_7" function="internal">
        <lane id=":0_7_0" index="0" speed="3.65" length="2.08" shape="6.42,1.62 5.22,0.82 4.93,0.25"/>
    </edge>
    <edge id=":0_10" function="internal">
        <lane id=":0_10_0" index="0" speed="5.58" length="8.34" shape="2.21,1.19 1.62,0.01 2.83,-2.39 6.44,-4.78"/>
    </edge>
    <edge id=":0_11" function="internal">
        <lane id=":0_11_0" index="0" speed="3.65" length="2.59" shape="4.93,0.25 4.82,0.02 5.22,-0.78 6.43,-1.58"/>
    </edge>
    <edge id=":1_0" function="internal">
        <lane id=":1_0_0" index="0" speed="6.52" length="9.04" shape="139.62,10.87 139.26,8.42 138.21,6.66 136.47,5.60 134.02,5.25"/>
    </edge>
    <edge id=":1_1" function="internal">
        <lane id=":1_1_0" index="0" speed="10.36" length="24.48" shape="139.62,10.87 140.55,4.23 143.39,-0.52 148.13,-3.38 154.77,-4.35"/>
    </edge>
    <edge id=":1_2" function="internal">
        <lane id=":1_2_0" index="0" speed="5.58" length="14.02" shape="139.62,10.87 142.01,7.27 144.41,6.06 146.81,7.26 149.22,10.85"/>
    </edge>
    <edge id=":1_3" function="internal">
        <lane id=":1_3_0" index="0" speed="8.01" length="14.18" shape="142.82,10.86 142.26,7.02 140.61,4.26 137.87,2.61 134.03,2.05"/>
    </edge>
    <edge id=":1_4" function="internal">
        <lane id=":1_4_0" index="0" speed="9.26" length="19.33" shape="142.82,10.86 143.56,5.62 145.80,1.87 149.54,-0.39 154.78,-1.15"/>
    </edge>
    <edge id=":1_5" function="internal">
        <lane id=":1_5_0" index="0" speed="3.65" length="4.67" shape="142.82,10.86 143.61,9.66 144.41,9.26 145.21,9.66 146.02,10.86"/>
    </edge>
    <edge id=":1_6" function="internal">
        <lane id=":1_6_0" index="0" speed="6.51" length="9.02" shape="154.80,5.25 152.35,5.60 150.61,6.66 149.56,8.41 149.22,10.85"/>
    </edge>
    <edge id=":1_7" function="internal">
        <lane id=":1_7_0" index="0" speed="13.89" length="20.78" shape="154.80,5.25 134.02,5.25"/>
    </edge>
    <edge id=":1_8" function="internal">
        <lane id=":1_8_0" index="0" speed="5.58" length="7.01" shape="154.80,5.25 151.19,2.86 149.98,0.46"/>
    </edge>
    <edge id=":1_9" function="internal">
        <lane id=":1_9_0" index="0" speed="8.00" length="5.89" shape="154.79,2.05 150.94,2.61 149.23,3.65"/>
    </edge>
    <edge id=":1_10" function="internal">
        <lane id=":1_10_0" index="0" speed="13.89" length="20.75" shape="154.79,2.05 134.03,2.05"/>
    </edge>
    <edge id=":1_11" function="internal">
        <lane id=":1_11_0" index="0" speed="3.65" length="2.34" shape="154.79,2.05 153.58,1.25 153.18,0.45"/>
    </edge>
    <edge id=":1_18" function="internal">
        <lane id=":1_18_0" index="0" speed="5.58" length="7.01" shape="149.98,0.46 151.17,-1.94 154.77,-4.35"/>
    </edge>
    <edge id=":1_19" function="internal">
        <lane id=":1_19_0" index="0" speed="8.00" length="8.28" shape="149.23,3.65 148.20,4.26 146.56,7.01 146.02,10.86"/>
    </edge>
    <edge id=":1_20" function="internal">
        <lane id=":1_20_0" index="0" speed="3.65" length="2.34" shape="153.18,0.45 153.58,-0.35 154.78,-1.15"/>
    </edge>
    <edge id=":1_12" function="internal">
        <lane id=":1_12_0" index="0" speed="13.89" length="20.71" shape="134.05,-4.35 154.77,-4.35"/>
    </edge>
    <edge id=":1_13" function="internal">
        <lane id=":1_13_0" index="0" speed="10.37" length="13.36" shape="134.05,-4.35 140.68,-3.38 145.41,-0.53 146.00,0.45"/>
    </edge>
    <edge id=":1_14" function="internal">
        <lane id=":1_14_0" index="0" speed="5.58" length="7.01" shape="134.05,-4.35 137.65,-1.94 138.84,0.46"/>
    </edge>
    <edge id=":1_15" function="internal">
        <lane id=":1_15_0" index="0" speed="13.89" length="20.73" shape="134.04,-1.15 154.78,-1.15"/>
    </edge>
    <edge id=":1_16" function="internal">
        <lane id=":1_16_0" index="0" speed="9.27" length="6.90" shape="134.04,-1.15 139.27,-0.39 140.66,0.45"/>
    </edge>
    <edge id=":1_17" function="internal">
        <lane id=":1_17_0" index="0" speed="3.65" length="2.34" shape="134.04,-1.15 135.24,-0.35 135.64,0.45"/>
    </edge>
    <edge id=":1_21" function="internal">
        <lane id=":1_21_0" index="0" speed="10.37" length="11.10" shape="146.00,0.45 148.26,4.22 149.22,10.85"/>
    </edge>
    <edge id=":1_22" function="internal">
        <lane id=":1_22_0" index="0" speed="5.58" length="7.01" shape="138.84,0.46 137.63,2.86 134.02,5.25"/>
    </edge>
    <edge id=":1_23" function="internal">
        <lane id=":1_23_0" index="0" speed="9.27" length="12.42" shape="140.66,0.45 143.01,1.87 145.26,5.62 146.02,10.86"/>
    </edge>
    <edge id=":1_24" function="internal">
        <lane id=":1_24_0" index="0" speed="3.65" length="2.34" shape="135.64,0.45 135.24,1.25 134.03,2.05"/>
    </edge>
    <edge id=":10_0" function="internal">
        <lane id=":10_0_0" index="0" speed="13.89" length="20.80" shape="-4.80,256.78 -4.80,235.98"/>
    </edge>
    <edge id=":10_1" function="internal">
        <lane id=":10_1_0" index="0" speed="10.36" length="13.42" shape="-4.80,256.78 -3.85,250.13 -1.00,245.38 -0.00,244.78"/>
    </edge>
    <edge id=":10_2" function="internal">
        <lane id=":10_2_0" index="0" speed="5.58" length="11.14" shape="-4.80,256.78 -2.40,253.18 0.00,251.98 2.40,253.18 3.20,254.38"/>
    </edge>
    <edge id=":10_3" function="internal">
        <lane id=":10_3_0" index="0" speed="13.89" length="20.80" shape="-1.60,256.78 -1.60,235.98"/>
    </edge>
    <edge id=":10_4" function="internal">
        <lane id=":10_4_0" index="0" speed="9.26" length="6.96" shape="-1.60,256.78 -0.85,251.53 0.00,250.11"/>
    </edge>
    <edge id=":10_5" function="internal">
        <lane id=":10_5_0" index="0" speed="3.65" length="2.34" shape="-1.60,256.78 -0.80,255.58 0.00,255.18"/>
    </edge>
    <edge id=":10_18" function="internal">
        <lane id=":10_18_0" index="0" speed="10.36" length="11.09" shape="-0.00,244.78 3.75,242.53 10.40,241.58"/>
    </edge>
    <edge id=":10_19" function="internal">
        <lane id=":10_19_0" index="0" speed="5.58" length="2.88" shape="3.20,254.38 4.80,256.78"/>
    </edge>
    <edge id=":10_20" function="internal">
        <lane id=":10_20_0" index="0" speed="9.26" length="12.40" shape="0.00,250.11 1.40,247.78 5.15,245.53 10.40,244.78"/>
    </edge>
    <edge id=":10_21" function="internal">
        <lane id=":10_21_0" index="0" speed="3.65" length="2.34" shape="0.00,255.18 0.80,255.58 1.60,256.78"/>
    </edge>
    <edge id=":10_6" function="internal">
        <lane id=":10_6_0" index="0" speed="6.51" length="9.03" shape="10.40,251.18 7.95,251.53 6.20,252.58 5.15,254.33 4.80,256.78"/>
    </edge>
    <edge id=":10_7" function="internal">
        <lane id=":10_7_0" index="0" speed="10.36" length="24.51" shape="10.40,251.18 3.75,250.23 -1.00,247.38 -3.85,242.63 -4.80,235.98"/>
    </edge>
    <edge id=":10_8" function="internal">
        <lane id=":10_8_0" index="0" speed="5.58" length="14.02" shape="10.40,251.18 6.80,248.78 5.60,246.38 6.80,243.98 10.40,241.58"/>
    </edge>
    <edge id=":10_9" function="internal">
        <lane id=":10_9_0" index="0" speed="8.00" length="14.19" shape="10.40,247.98 6.55,248.53 3.80,250.18 2.15,252.93 1.60,256.78"/>
    </edge>
    <edge id=":10_10" function="internal">
        <lane id=":10_10_0" index="0" speed="9.26" length="19.35" shape="10.40,247.98 5.15,247.23 1.40,244.98 -0.85,241.23 -1.60,235.98"/>
    </edge>
    <edge id=":10_11" function="internal">
        <lane id=":10_11_0" index="0" speed="3.65" length="4.67" shape="10.40,247.98 9.20,247.18 8.80,246.38 9.20,245.58 10.40,244.78"/>
    </edge>
    <edge id=":10_12" function="internal">
        <lane id=":10_12_0" index="0" speed="6.51" length="9.03" shape="4.80,235.98 5.15,238.43 6.20,240.18 7.95,241.23 10.40,241.58"/>
    </edge>
    <edge id=":10_13" function="internal">
        <lane id=":10_13_0" index="0" speed="13.89" length="20.80" shape="4.80,235.98 4.80,256.78"/>
    </edge>
    <edge id=":10_14" function="internal">
        <lane id=":10_14_0" index="0" speed="5.58" length="7.01" shape="4.80,235.98 2.40,239.58 0.00,240.78"/>
    </edge>
    <edge id=":10_15" function="internal">
        <lane id=":10_15_0" index="0" speed="8.00" length="5.93" shape="1.60,235.98 2.15,239.83 3.20,241.58"/>
    </edge>
    <edge id=":10_16" function="internal">
        <lane id=":10_16_0" index="0" speed="13.89" length="20.80" shape="1.60,235.98 1.60,256.78"/>
    </edge>
    <edge id=":10_17" function="internal">
        <lane id=":10_17_0" index="0" speed="3.65" length="2.34" shape="1.60,235.98 0.80,237.18 0.00,237.58"/>
    </edge>
    <edge id=":10_22" function="internal">
        <lane id=":10_22_0" index="0" speed="5.58" length="7.01" shape="0.00,240.78 -2.40,239.58 -4.80,235.98"/>
    </edge>
    <edge id=":10_23" function="internal">
        <lane id=":10_23_0" index="0" speed="8.00" length="8.26" shape="3.20,241.58 3.80,242.58 6.55,244.23 10.40,244.78"/>
    </edge>
    <edge id=":10_24" function="internal">
        <lane id=":10_24_0" index="0" speed="3.65" length="2.34" shape="0.00,237.58 -0.80,237.18 -1.60,235.98"/>
    </edge>
    <edge id=":11_0" function="internal">
        <lane id=":11_0_0" index="0" speed="6.51" length="9.03" shape="139.83,256.78 139.48,254.33 138.43,252.58 136.68,251.53 134.23,251.18"/>
    </edge>
    <edge id=":11_1" function="internal">
        <lane id=":11_1_0" index="0" speed="13.89" length="20.80" shape="139.83,256.78 139.83,235.98"/>
    </edge>
    <edge id=":11_2" function="internal">
        <lane id=":11_2_0" index="0" speed="10.10" length="7.48" shape="139.83,256.78 141.20,251.38 142.32,249.84"/>
    </edge>
    <edge id=":11_3" function="internal">
        <lane id=":11_3_0" index="0" speed="5.58" length="7.01" shape="139.83,256.78 142.23,253.18 144.63,251.98"/>
    </edge>
    <edge id=":11_4" function="internal">
        <lane id=":11_4_0" index="0" speed="8.00" length="5.93" shape="143.03,256.78 142.48,252.93 141.43,251.18"/>
    </edge>
    <edge id=":11_5" function="internal">
        <lane id=":11_5_0" index="0" speed="13.89" length="20.80" shape="143.03,256.78 143.03,235.98"/>
    </edge>
    <edge id=":11_6" function="internal">
        <lane id=":11_6_0" index="0" speed="9.02" length="5.28" shape="143.03,256.78 144.11,252.52 144.63,251.80"/>
    </edge>
    <edge id=":11_7" function="internal">
        <lane id=":11_7_0" index="0" speed="3.65" length="2.34" shape="143.03,256.78 143.83,255.58 144.63,255.18"/>
    </edge>
    <edge id=":11_32" function="internal">
        <lane id=":11_32_0" index="0" speed="10.10" length="15.74" shape="142.32,249.84 144.74,246.49 149.63,242.95 155.03,241.58"/>
    </edge>
    <edge id=":11_33" function="internal">
        <lane id=":11_33_0" index="0" speed="5.58" length="7.01" shape="144.63,251.98 147.03,253.18 149.43,256.78"/>
    </edge>
    <edge id=":11_34" function="internal">
        <lane id=":11_34_0" index="0" speed="8.00" length="8.26" shape="141.43,251.18 140.83,250.18 138.08,248.53 134.23,247.98"/>
    </edge>
    <edge id=":11_35" function="internal">
        <lane id=":11_35_0" index="0" speed="9.02" length="13.05" shape="144.63,251.80 146.91,248.66 150.77,245.86 155.03,244.78"/>
    </edge>
    <edge id=":11_36" function="internal">
        <lane id=":11_36_0" index="0" speed="3.65" length="2.34" shape="144.63,255.18 145.43,255.58 146.23,256.78"/>
    </edge>
    <edge id=":11_8" function="internal">
        <lane id=":11_8_0" index="0" speed="6.51" length="9.03" shape="155.03,251.18 152.58,251.53 150.83,252.58 149.78,254.33 149.43,256.78"/>
    </edge>
    <edge id=":11_9" function="internal">
        <lane id=":11_9_0" index="0" speed="13.89" length="20.80" shape="155.03,251.18 134.23,251.18"/>
    </edge>
    <edge id=":11_10" function="internal">
        <lane id=":11_10_0" index="0" speed="10.10" length="23.22" shape="155.03,251.18 149.63,249.81 144.74,246.27 141.20,241.38 139.83,235.98"/>
    </edge>
    <edge id=":11_11" function="internal">
        <lane id=":11_11_0" index="0" speed="5.58" length="14.02" shape="155.03,251.18 151.43,248.78 150.23,246.38 151.43,243.98 155.03,241.58"/>
    </edge>
    <edge id=":11_12" function="internal">
        <lane id=":11_12_0" index="0" speed="8.00" length="14.19" shape="155.03,247.98 151.18,248.53 148.43,250.18 146.78,252.93 146.23,256.78"/>
    </edge>
    <edge id=":11_13" function="internal">
        <lane id=":11_13_0" index="0" speed="13.89" length="20.80" shape="155.03,247.98 134.23,247.98"/>
    </edge>
    <edge id=":11_14" function="internal">
        <lane id=":11_14_0" index="0" speed="9.02" length="18.33" shape="155.03,247.98 150.77,246.90 146.91,244.10 144.11,240.24 143.03,235.98"/>
    </edge>
    <edge id=":11_15" function="internal">
        <lane id=":11_15_0" index="0" speed="3.65" length="4.67" shape="155.03,247.98 153.83,247.18 153.43,246.38 153.83,245.58 155.03,244.78"/>
    </edge>
    <edge id=":11_16" function="internal">
        <lane id=":11_16_0" index="0" speed="6.51" length="9.03" shape="149.43,235.98 149.78,238.43 150.83,240.18 152.58,241.23 155.03,241.58"/>
    </edge>
    <edge id=":11_17" function="internal">
        <lane id=":11_17_0" index="0" speed="13.89" length="20.80" shape="149.43,235.98 149.43,256.78"/>
    </edge>
    <edge id=":11_18" function="internal">
        <lane id=":11_18_0" index="0" speed="10.10" length="7.48" shape="149.43,235.98 148.06,241.38 146.94,242.92"/>
    </edge>
    <edge id=":11_19" function="internal">
        <lane id=":11_19_0" index="0" speed="5.58" length="7.01" shape="149.43,235.98 147.03,239.58 144.63,240.78"/>
    </edge>
    <edge id=":11_20" function="internal">
        <lane id=":11_20_0" index="0" speed="8.00" length="5.93" shape="146.23,235.98 146.78,239.83 147.83,241.58"/>
    </edge>
    <edge id=":11_21" function="internal">
        <lane id=":11_21_0" index="0" speed="13.89" length="20.80" shape="146.23,235.98 146.23,256.78"/>
    </edge>
    <edge id=":11_22" function="internal">
        <lane id=":11_22_0" index="0" speed="9.02" length="5.28" shape="146.23,235.98 145.15,240.24 144.63,240.96"/>
    </edge>
    <edge id=":11_23" function="internal">
        <lane id=":11_23_0" index="0" speed="3.65" length="2.34" shape="146.23,235.98 145.43,237.18 144.63,237.58"/>
    </edge>
    <edge id=":11_37" function="internal">
        <lane id=":11_37_0" index="0" speed="10.10" length="15.74" shape="146.94,242.92 144.52,246.27 139.63,249.81 134.23,251.18"/>
    </edge>
    <edge id=":11_38" function="internal">
        <lane id=":11_38_0" index="0" speed="5.58" length="7.01" shape="144.63,240.78 142.23,239.58 139.83,235.98"/>
    </edge>
    <edge id=":11_39" function="internal">
        <lane id=":11_39_0" index="0" speed="8.00" length="8.26" shape="147.83,241.58 148.43,242.58 151.18,244.23 155.03,244.78"/>
    </edge>
    <edge id=":11_40" function="internal">
        <lane id=":11_40_0" index="0" speed="9.02" length="13.05" shape="144.63,240.96 142.35,244.10 138.49,246.90 134.23,247.98"/>
    </edge>
    <edge id=":11_41" function="internal">
        <lane id=":11_41_0" index="0" speed="3.65" length="2.34" shape="144.63,237.58 143.83,237.18 143.03,235.98"/>
    </edge>
    <edge id=":11_24" function="internal">
        <lane id=":11_24_0" index="0" speed="6.51" length="9.03" shape="134.23,241.58 136.68,241.23 138.43,240.18 139.48,238.43 139.83,235.98"/>
    </edge>
    <edge id=":11_25" function="internal">
        <lane id=":11_25_0" index="0" speed="13.89" length="20.80" shape="134.23,241.58 155.03,241.58"/>
    </edge>
    <edge id=":11_26" function="internal">
        <lane id=":11_26_0" index="0" speed="10.10" length="23.22" shape="134.23,241.58 139.63,242.95 144.52,246.49 148.06,251.38 149.43,256.78"/>
    </edge>
    <edge id=":11_27" function="internal">
        <lane id=":11_27_0" index="0" speed="5.58" length="14.02" shape="134.23,241.58 137.83,243.98 139.03,246.38 137.83,248.78 134.23,251.18"/>
    </edge>
    <edge id=":11_28" function="internal">
        <lane id=":11_28_0" index="0" speed="8.00" length="14.19" shape="134.23,244.78 138.08,244.23 140.83,242.58 142.48,239.83 143.03,235.98"/>
    </edge>
    <edge id=":11_29" function="internal">
        <lane id=":11_29_0" index="0" speed="13.89" length="20.80" shape="134.23,244.78 155.03,244.78"/>
    </edge>
    <edge id=":11_30" function="internal">
        <lane id=":11_30_0" index="0" speed="9.02" length="18.33" shape="134.23,244.78 138.49,245.86 142.35,248.66 145.15,252.52 146.23,256.78"/>
    </edge>
    <edge id=":11_31" function="internal">
        <lane id=":11_31_0" index="0" speed="3.65" length="4.67" shape="134.23,244.78 135.43,245.58 135.83,246.38 135.43,247.18 134.23,247.98"/>
    </edge>
    <edge id=":12_0" function="internal">
        <lane id=":12_0_0" index="0" speed="6.51" length="9.03" shape="234.43,256.79 234.08,254.34 233.03,252.59 231.28,251.54 228.82,251.19"/>
    </edge>
    <edge id=":12_1" function="internal">
        <lane id=":12_1_0" index="0" speed="13.89" length="20.80" shape="234.43,256.79 234.42,235.99"/>
    </edge>
    <edge id=":12_2" function="internal">
        <lane id=":12_2_0" index="0" speed="10.10" length="23.22" shape="234.43,256.79 235.79,251.39 239.34,246.50 244.23,242.96 249.63,241.59"/>
    </edge>
    <edge id=":12_3" function="internal">
        <lane id=":12_3_0" index="0" speed="5.58" length="14.02" shape="234.43,256.79 236.83,253.19 239.23,251.99 241.63,253.19 244.03,256.79"/>
    </edge>
    <edge id=":12_4" function="internal">
        <lane id=":12_4_0" index="0" speed="8.00" length="14.20" shape="237.63,256.79 237.08,252.94 235.43,250.19 232.68,248.54 228.82,247.99"/>
    </edge>
    <edge id=":12_5" function="internal">
        <lane id=":12_5_0" index="0" speed="13.89" length="20.81" shape="237.63,256.79 237.62,235.99"/>
    </edge>
    <edge id=":12_6" function="internal">
        <lane id=":12_6_0" index="0" speed="9.03" length="18.33" shape="237.63,256.79 238.71,252.53 241.50,248.67 245.36,245.87 249.63,244.79"/>
    </edge>
    <edge id=":12_7" function="internal">
        <lane id=":12_7_0" index="0" speed="3.65" length="4.67" shape="237.63,256.79 238.43,255.59 239.23,255.19 240.03,255.59 240.83,256.79"/>
    </edge>
    <edge id=":12_8" function="internal">
        <lane id=":12_8_0" index="0" speed="6.51" length="9.04" shape="249.63,251.19 247.18,251.54 245.43,252.59 244.38,254.34 244.03,256.79"/>
    </edge>
    <edge id=":12_9" function="internal">
        <lane id=":12_9_0" index="0" speed="13.89" length="20.80" shape="249.63,251.19 228.82,251.19"/>
    </edge>
    <edge id=":12_10" function="internal">
        <lane id=":12_10_0" index="0" speed="10.10" length="7.48" shape="249.63,251.19 244.23,249.82 242.68,248.70"/>
    </edge>
    <edge id=":12_11" function="internal">
        <lane id=":12_11_0" index="0" speed="5.58" length="7.01" shape="249.63,251.19 246.03,248.79 244.83,246.39"/>
    </edge>
    <edge id=":12_12" function="internal">
        <lane id=":12_12_0" index="0" speed="8.00" length="5.93" shape="249.63,247.99 245.78,248.54 244.03,249.59"/>
    </edge>
    <edge id=":12_13" function="internal">
        <lane id=":12_13_0" index="0" speed="13.89" length="20.80" shape="249.63,247.99 228.82,247.99"/>
    </edge>
    <edge id=":12_14" function="internal">
        <lane id=":12_14_0" index="0" speed="9.03" length="5.28" shape="249.63,247.99 245.36,246.91 244.65,246.39"/>
    </edge>
    <edge id=":12_15" function="internal">
        <lane id=":12_15_0" index="0" speed="3.65" length="2.34" shape="249.63,247.99 248.43,247.19 248.03,246.39"/>
    </edge>
    <edge id=":12_32" function="internal">
        <lane id=":12_32_0" index="0" speed="10.10" length="15.74" shape="242.68,248.70 239.34,246.28 235.79,241.39 234.42,235.99"/>
    </edge>
    <edge id=":12_33" function="internal">
        <lane id=":12_33_0" index="0" speed="5.58" length="7.01" shape="244.83,246.39 246.03,243.99 249.63,241.59"/>
    </edge>
    <edge id=":12_34" function="internal">
        <lane id=":12_34_0" index="0" speed="8.00" length="8.27" shape="244.03,249.59 243.03,250.19 241.38,252.94 240.83,256.79"/>
    </edge>
    <edge id=":12_35" function="internal">
        <lane id=":12_35_0" index="0" speed="9.03" length="13.05" shape="244.65,246.39 241.50,244.11 238.70,240.25 237.62,235.99"/>
    </edge>
    <edge id=":12_36" function="internal">
        <lane id=":12_36_0" index="0" speed="3.65" length="2.34" shape="248.03,246.39 248.43,245.59 249.63,244.79"/>
    </edge>
    <edge id=":12_16" function="internal">
        <lane id=":12_16_0" index="0" speed="6.51" length="9.04" shape="244.02,235.98 244.37,238.43 245.42,240.19 247.18,241.24 249.63,241.59"/>
    </edge>
    <edge id=":12_17" function="internal">
        <lane id=":12_17_0" index="0" speed="13.89" length="20.81" shape="244.02,235.98 244.03,256.79"/>
    </edge>
    <edge id=":12_18" function="internal">
        <lane id=":12_18_0" index="0" speed="10.09" length="23.22" shape="244.02,235.98 242.66,241.38 239.11,246.27 234.22,249.82 228.82,251.19"/>
    </edge>
    <edge id=":12_19" function="internal">
        <lane id=":12_19_0" index="0" speed="5.58" length="14.02" shape="244.02,235.98 241.62,239.58 239.23,240.78 236.82,239.59 234.42,235.99"/>
    </edge>
    <edge id=":12_20" function="internal">
        <lane id=":12_20_0" index="0" speed="8.01" length="14.20" shape="240.82,235.98 241.37,239.84 243.03,242.59 245.78,244.24 249.63,244.79"/>
    </edge>
    <edge id=":12_21" function="internal">
        <lane id=":12_21_0" index="0" speed="13.89" length="20.81" shape="240.82,235.98 240.83,256.79"/>
    </edge>
    <edge id=":12_22" function="internal">
        <lane id=":12_22_0" index="0" speed="9.02" length="18.33" shape="240.82,235.98 239.74,240.25 236.95,244.11 233.09,246.91 228.82,247.99"/>
    </edge>
    <edge id=":12_23" function="internal">
        <lane id=":12_23_0" index="0" speed="3.65" length="4.67" shape="240.82,235.98 240.02,237.18 239.22,237.58 238.42,237.18 237.62,235.99"/>
    </edge>
    <edge id=":12_24" function="internal">
        <lane id=":12_24_0" index="0" speed="6.51" length="9.03" shape="228.82,241.59 231.27,241.24 233.02,240.19 234.07,238.44 234.42,235.99"/>
    </edge>
    <edge id=":12_25" function="internal">
        <lane id=":12_25_0" index="0" speed="13.89" length="20.80" shape="228.82,241.59 249.63,241.59"/>
    </edge>
    <edge id=":12_26" function="internal">
        <lane id=":12_26_0" index="0" speed="10.10" length="7.48" shape="228.82,241.59 234.22,242.96 235.77,244.08"/>
    </edge>
    <edge id=":12_27" function="internal">
        <lane id=":12_27_0" index="0" speed="5.58" length="7.01" shape="228.82,241.59 232.42,243.99 233.62,246.39"/>
    </edge>
    <edge id=":12_28" function="internal">
        <lane id=":12_28_0" index="0" speed="8.00" length="5.93" shape="228.82,244.79 232.68,244.24 234.43,243.19"/>
    </edge>
    <edge id=":12_29" function="internal">
        <lane id=":12_29_0" index="0" speed="13.89" length="20.80" shape="228.82,244.79 249.63,244.79"/>
    </edge>
    <edge id=":12_30" function="internal">
        <lane id=":12_30_0" index="0" speed="9.02" length="5.28" shape="228.82,244.79 233.09,245.87 233.80,246.39"/>
    </edge>
    <edge id=":12_31" function="internal">
        <lane id=":12_31_0" index="0" speed="3.65" length="2.34" shape="228.82,244.79 230.02,245.59 230.42,246.39"/>
    </edge>
    <edge id=":12_37" function="internal">
        <lane id=":12_37_0" index="0" speed="10.10" length="15.75" shape="235.77,244.08 239.11,246.50 242.66,251.40 244.03,256.79"/>
    </edge>
    <edge id=":12_38" function="internal">
        <lane id=":12_38_0" index="0" speed="5.58" length="7.01" shape="233.62,246.39 232.42,248.79 228.82,251.19"/>
    </edge>
    <edge id=":12_39" function="internal">
        <lane id=":12_39_0" index="0" speed="8.00" length="8.26" shape="234.43,243.19 235.43,242.59 237.07,239.84 237.62,235.99"/>
    </edge>
    <edge id=":12_40" function="internal">
        <lane id=":12_40_0" index="0" speed="9.02" length="13.05" shape="233.80,246.39 236.95,248.67 239.75,252.53 240.83,256.79"/>
    </edge>
    <edge id=":12_41" function="internal">
        <lane id=":12_41_0" index="0" speed="3.65" length="2.34" shape="230.42,246.39 230.02,247.19 228.82,247.99"/>
    </edge>
    <edge id=":13_0" function="internal">
        <lane id=":13_0_0" index="0" speed="6.53" length="9.08" shape="332.46,251.17 330.00,251.52 328.24,252.58 327.19,254.34 326.83,256.80"/>
    </edge>
    <edge id=":13_1" function="internal">
        <lane id=":13_1_0" index="0" speed="13.89" length="20.83" shape="332.46,251.17 311.64,251.18"/>
    </edge>
    <edge id=":13_2" function="internal">
        <lane id=":13_2_0" index="0" speed="10.09" length="7.58" shape="332.46,251.17 327.06,249.81 325.44,248.63"/>
    </edge>
    <edge id=":13_3" function="internal">
        <lane id=":13_3_0" index="0" speed="5.58" length="7.01" shape="332.46,251.17 328.86,248.77 327.66,246.37"/>
    </edge>
    <edge id=":13_4" function="internal">
        <lane id=":13_4_0" index="0" speed="8.02" length="5.93" shape="332.46,247.97 328.60,248.52 326.86,249.57"/>
    </edge>
    <edge id=":13_5" function="internal">
        <lane id=":13_5_0" index="0" speed="13.89" length="20.82" shape="332.46,247.97 311.64,247.98"/>
    </edge>
    <edge id=":13_6" function="internal">
        <lane id=":13_6_0" index="0" speed="9.02" length="5.28" shape="332.46,247.97 328.20,246.89 327.48,246.37"/>
    </edge>
    <edge id=":13_7" function="internal">
        <lane id=":13_7_0" index="0" speed="3.65" length="2.34" shape="332.46,247.97 331.26,247.17 330.86,246.37"/>
    </edge>
    <edge id=":13_32" function="internal">
        <lane id=":13_32_0" index="0" speed="10.09" length="15.65" shape="325.44,248.63 322.17,246.26 318.62,241.37 317.25,235.97"/>
    </edge>
    <edge id=":13_33" function="internal">
        <lane id=":13_33_0" index="0" speed="5.58" length="7.01" shape="327.66,246.37 328.86,243.97 332.45,241.57"/>
    </edge>
    <edge id=":13_34" function="internal">
        <lane id=":13_34_0" index="0" speed="8.02" length="8.30" shape="326.86,249.57 325.85,250.18 324.19,252.94 323.63,256.80"/>
    </edge>
    <edge id=":13_35" function="internal">
        <lane id=":13_35_0" index="0" speed="9.02" length="13.05" shape="327.48,246.37 324.33,244.09 321.53,240.23 320.45,235.97"/>
    </edge>
    <edge id=":13_36" function="internal">
        <lane id=":13_36_0" index="0" speed="3.65" length="2.34" shape="330.86,246.37 331.26,245.57 332.46,244.77"/>
    </edge>
    <edge id=":13_8" function="internal">
        <lane id=":13_8_0" index="0" speed="6.50" length="9.03" shape="326.85,235.97 327.20,238.42 328.25,240.17 330.00,241.22 332.45,241.57"/>
    </edge>
    <edge id=":13_9" function="internal">
        <lane id=":13_9_0" index="0" speed="13.89" length="20.83" shape="326.85,235.97 326.83,256.80"/>
    </edge>
    <edge id=":13_10" function="internal">