<?xml version="1.0" encoding="UTF-8"?>

<!-- generated on Sat Jan 26 16:49:37 2019 by SUMO netconvert Version 0.32.0
<?xml version="1.0" encoding="UTF-8"?>

<configuration xmlns:xsi="http://www.w3.org/2001/XMLSchema-instance" xsi:noNamespaceSchemaLocation="http://sumo.dlr.de/xsd/netconvertConfiguration.xsd">

    <input>
        <node-files value="hello.nod.xml"/>
        <edge-files value="hello.edg.xml"/>
    </input>

    <output>
        <output-file value="grid.net.xml"/>
    </output>

</configuration>
-->

<net version="0.27" xmlns:xsi="http://www.w3.org/2001/XMLSchema-instance" xsi:noNamespaceSchemaLocation="http://sumo.dlr.de/xsd/net_file.xsd">

    <location netOffset="0.00,0.00" convBoundary="0.00,0.00,400.00,400.00" origBoundary="0.00,0.00,400.00,400.00" projParameter="!"/>

    <edge id=":0_0" function="internal">
        <lane id=":0_0_0" index="0" speed="13.90" length="7.90" shape="-1.65,3.25 -1.34,1.11 -0.43,-0.43 1.11,-1.34 3.25,-1.65"/>
    </edge>
    <edge id=":0_1" function="internal">
        <lane id=":0_1_0" index="0" speed="13.90" length="2.80" shape="-1.65,3.25 -0.83,2.01 0.00,1.60 0.35,1.77"/>
    </edge>
    <edge id=":0_4" function="internal">
        <lane id=":0_4_0" index="0" speed="13.90" length="2.02" shape="0.35,1.77 0.83,2.01 1.65,3.25"/>
    </edge>
    <edge id=":0_2" function="internal">
        <lane id=":0_2_0" index="0" speed="13.90" length="2.58" shape="3.25,1.65 2.55,1.75 2.05,2.05 1.75,2.55 1.65,3.25"/>
    </edge>
    <edge id=":0_3" function="internal">
        <lane id=":0_3_0" index="0" speed="13.90" length="2.20" shape="3.25,1.65 2.01,0.83 1.69,0.19"/>
    </edge>
    <edge id=":0_5" function="internal">
        <lane id=":0_5_0" index="0" speed="13.90" length="2.62" shape="1.69,0.19 1.60,0.00 2.01,-0.83 3.25,-1.65"/>
    </edge>
    <edge id=":1_0" function="internal">
        <lane id=":1_0_0" index="0" speed="13.90" length="5.00" shape="98.35,4.75 98.16,3.39 97.57,2.43 96.61,1.84 95.25,1.65"/>
    </edge>
    <edge id=":1_1" function="internal">
        <lane id=":1_1_0" index="0" speed="13.90" length="10.32" shape="98.35,4.75 98.75,1.95 99.95,-0.05 101.95,-1.25 104.75,-1.65"/>
    </edge>
    <edge id=":1_2" function="internal">
        <lane id=":1_2_0" index="0" speed="13.90" length="4.82" shape="98.35,4.75 99.18,3.51 100.00,3.10 100.83,3.51 101.65,4.75"/>
    </edge>
    <edge id=":1_3" function="internal">
        <lane id=":1_3_0" index="0" speed="13.90" length="5.00" shape="104.75,1.65 103.39,1.84 102.43,2.43 101.84,3.39 101.65,4.75"/>
    </edge>
    <edge id=":1_4" function="internal">
        <lane id=":1_4_0" index="0" speed="13.90" length="9.50" shape="104.75,1.65 95.25,1.65"/>
    </edge>
    <edge id=":1_5" function="internal">
        <lane id=":1_5_0" index="0" speed="13.90" length="2.41" shape="104.75,1.65 103.51,0.83 103.10,0.00"/>
    </edge>
    <edge id=":1_9" function="internal">
        <lane id=":1_9_0" index="0" speed="13.90" length="2.41" shape="103.10,0.00 103.51,-0.83 104.75,-1.65"/>
    </edge>
    <edge id=":1_6" function="internal">
        <lane id=":1_6_0" index="0" speed="13.90" length="9.50" shape="95.25,-1.65 104.75,-1.65"/>
    </edge>
    <edge id=":1_7" function="internal">
        <lane id=":1_7_0" index="0" speed="13.90" length="5.28" shape="95.25,-1.65 98.05,-1.25 100.05,-0.05 100.11,0.05"/>
    </edge>
    <edge id=":1_8" function="internal">
        <lane id=":1_8_0" index="0" speed="13.90" length="2.41" shape="95.25,-1.65 96.49,-0.83 96.90,0.00"/>
    </edge>
    <edge id=":1_10" function="internal">
        <lane id=":1_10_0" index="0" speed="13.90" length="5.04" shape="100.11,0.05 101.25,1.95 101.65,4.75"/>
    </edge>
    <edge id=":1_11" function="internal">
        <lane id=":1_11_0" index="0" speed="13.90" length="2.41" shape="96.90,0.00 96.49,0.83 95.25,1.65"/>
    </edge>
    <edge id=":10_0" function="internal">
        <lane id=":10_0_0" index="0" speed="13.90" length="9.50" shape="-1.65,204.75 -1.65,195.25"/>
    </edge>
    <edge id=":10_1" function="internal">
        <lane id=":10_1_0" index="0" speed="13.90" length="5.28" shape="-1.65,204.75 -1.25,201.95 -0.05,199.95 0.05,199.89"/>
    </edge>
    <edge id=":10_2" function="internal">
        <lane id=":10_2_0" index="0" speed="13.90" length="2.41" shape="-1.65,204.75 -0.83,203.51 0.00,203.10"/>
    </edge>
    <edge id=":10_9" function="internal">
        <lane id=":10_9_0" index="0" speed="13.90" length="5.04" shape="0.05,199.89 1.95,198.75 4.75,198.35"/>
    </edge>
    <edge id=":10_10" function="internal">
        <lane id=":10_10_0" index="0" speed="13.90" length="2.41" shape="0.00,203.10 0.83,203.51 1.65,204.75"/>
    </edge>
    <edge id=":10_3" function="internal">
        <lane id=":10_3_0" index="0" speed="13.90" length="5.00" shape="4.75,201.65 3.39,201.84 2.43,202.43 1.84,203.39 1.65,204.75"/>
    </edge>
    <edge id=":10_4" function="internal">
        <lane id=":10_4_0" index="0" speed="13.90" length="10.32" shape="4.75,201.65 1.95,201.25 -0.05,200.05 -1.25,198.05 -1.65,195.25"/>
    </edge>
    <edge id=":10_5" function="internal">
        <lane id=":10_5_0" index="0" speed="13.90" length="4.82" shape="4.75,201.65 3.51,200.83 3.10,200.00 3.51,199.18 4.75,198.35"/>
    </edge>
    <edge id=":10_6" function="internal">
        <lane id=":10_6_0" index="0" speed="13.90" length="5.00" shape="1.65,195.25 1.84,196.61 2.43,197.58 3.39,198.16 4.75,198.35"/>
    </edge>
    <edge id=":10_7" function="internal">
        <lane id=":10_7_0" index="0" speed="13.90" length="9.50" shape="1.65,195.25 1.65,204.75"/>
    </edge>
    <edge id=":10_8" function="internal">
        <lane id=":10_8_0" index="0" speed="13.90" length="2.41" shape="1.65,195.25 0.83,196.49 0.00,196.90"/>
    </edge>
    <edge id=":10_11" function="internal">
        <lane id=":10_11_0" index="0" speed="13.90" length="2.41" shape="0.00,196.90 -0.83,196.49 -1.65,195.25"/>
    </edge>
    <edge id=":11_0" function="internal">
        <lane id=":11_0_0" index="0" speed="13.90" length="5.00" shape="98.35,204.75 98.16,203.39 97.57,202.42 96.61,201.84 95.25,201.65"/>
    </edge>
    <edge id=":11_1" function="internal">
        <lane id=":11_1_0" index="0" speed="13.90" length="9.50" shape="98.35,204.75 98.35,195.25"/>
    </edge>
    <edge id=":11_2" function="internal">
        <lane id=":11_2_0" index="0" speed="13.90" length="5.28" shape="98.35,204.75 98.75,201.95 99.95,199.95 100.05,199.89"/>
    </edge>
    <edge id=":11_3" function="internal">
        <lane id=":11_3_0" index="0" speed="13.90" length="2.41" shape="98.35,204.75 99.18,203.51 100.00,203.10"/>
    </edge>
    <edge id=":11_16" function="internal">
        <lane id=":11_16_0" index="0" speed="13.90" length="5.04" shape="100.05,199.89 101.95,198.75 104.75,198.35"/>
    </edge>
    <edge id=":11_17" function="internal">
        <lane id=":11_17_0" index="0" speed="13.90" length="2.41" shape="100.00,203.10 100.83,203.51 101.65,204.75"/>
    </edge>
    <edge id=":11_4" function="internal">
        <lane id=":11_4_0" index="0" speed="13.90" length="5.00" shape="104.75,201.65 103.39,201.84 102.43,202.43 101.84,203.39 101.65,204.75"/>
    </edge>
    <edge id=":11_5" function="internal">
        <lane id=":11_5_0" index="0" speed="13.90" length="9.50" shape="104.75,201.65 95.25,201.65"/>
    </edge>
    <edge id=":11_6" function="internal">
        <lane id=":11_6_0" index="0" speed="13.90" length="10.32" shape="104.75,201.65 101.95,201.25 99.95,200.05 98.75,198.05 98.35,195.25"/>
    </edge>
    <edge id=":11_7" function="internal">
        <lane id=":11_7_0" index="0" speed="13.90" length="4.82" shape="104.75,201.65 103.51,200.83 103.10,200.00 103.51,199.18 104.75,198.35"/>
    </edge>
    <edge id=":11_8" function="internal">
        <lane id=":11_8_0" index="0" speed="13.90" length="5.00" shape="101.65,195.25 101.84,196.61 102.43,197.58 103.39,198.16 104.75,198.35"/>
    </edge>
    <edge id=":11_9" function="internal">
        <lane id=":11_9_0" index="0" speed="13.90" length="9.50" shape="101.65,195.25 101.65,204.75"/>
    </edge>
    <edge id=":11_10" function="internal">
        <lane id=":11_10_0" index="0" speed="13.90" length="5.28" shape="101.65,195.25 101.25,198.05 100.05,200.05 99.95,200.11"/>
    </edge>
    <edge id=":11_11" function="internal">
        <lane id=":11_11_0" index="0" speed="13.90" length="2.41" shape="101.65,195.25 100.82,196.49 100.00,196.90"/>
    </edge>
    <edge id=":11_18" function="internal">
        <lane id=":11_18_0" index="0" speed="13.90" length="5.04" shape="99.95,200.11 98.05,201.25 95.25,201.65"/>
    </edge>
    <edge id=":11_19" function="internal">
        <lane id=":11_19_0" index="0" speed="13.90" length="2.41" shape="100.00,196.90 99.17,196.49 98.35,195.25"/>
    </edge>
    <edge id=":11_12" function="internal">
        <lane id=":11_12_0" index="0" speed="13.90" length="5.00" shape="95.25,198.35 96.61,198.16 97.57,197.57 98.16,196.61 98.35,195.25"/>
    </edge>
    <edge id=":11_13" function="internal">
        <lane id=":11_13_0" index="0" speed="13.90" length="9.50" shape="95.25,198.35 104.75,198.35"/>
    </edge>
    <edge id=":11_14" function="internal">
        <lane id=":11_14_0" index="0" speed="13.90" length="10.32" shape="95.25,198.35 98.05,198.75 100.05,199.95 101.25,201.95 101.65,204.75"/>
    </edge>
    <edge id=":11_15" function="internal">
        <lane id=":11_15_0" index="0" speed="13.90" length="4.82" shape="95.25,198.35 96.49,199.17 96.90,200.00 96.49,200.82 95.25,201.65"/>
    </edge>
    <edge id=":12_0" function="internal">
        <lane id=":12_0_0" index="0" speed="13.90" length="5.00" shape="198.35,204.75 198.16,203.39 197.57,202.42 196.61,201.84 195.25,201.65"/>
    </edge>
    <edge id=":12_1" function="internal">
        <lane id=":12_1_0" index="0" speed="13.90" length="9.50" shape="198.35,204.75 198.35,195.25"/>
    </edge>
    <edge id=":12_2" function="internal">
        <lane id=":12_2_0" index="0" speed="13.90" length="5.28" shape="198.35,204.75 198.75,201.95 199.95,199.95 200.05,199.89"/>
    </edge>
    <edge id=":12_3" function="internal">
        <lane id=":12_3_0" index="0" speed="13.90" length="2.41" shape="198.35,204.75 199.17,203.51 200.00,203.10"/>
    </edge>
    <edge id=":12_16" function="internal">
        <lane id=":12_16_0" index="0" speed="13.90" length="5.04" shape="200.05,199.89 201.95,198.75 204.75,198.35"/>
    </edge>
    <edge id=":12_17" function="internal">
        <lane id=":12_17_0" index="0" speed="13.90" length="2.41" shape="200.00,203.10 200.82,203.51 201.65,204.75"/>
    </edge>
    <edge id=":12_4" function="internal">
        <lane id=":12_4_0" index="0" speed="13.90" length="5.00" shape="204.75,201.65 203.39,201.84 202.42,202.43 201.84,203.39 201.65,204.75"/>
    </edge>
    <edge id=":12_5" function="internal">
        <lane id=":12_5_0" index="0" speed="13.90" length="9.50" shape="204.75,201.65 195.25,201.65"/>
    </edge>
    <edge id=":12_6" function="internal">
        <lane id=":12_6_0" index="0" speed="13.90" length="10.32" shape="204.75,201.65 201.95,201.25 199.95,200.05 198.75,198.05 198.35,195.25"/>
    </edge>
    <edge id=":12_7" function="internal">
        <lane id=":12_7_0" index="0" speed="13.90" length="4.82" shape="204.75,201.65 203.51,200.83 203.10,200.00 203.51,199.18 204.75,198.35"/>
    </edge>
    <edge id=":12_8" function="internal">
        <lane id=":12_8_0" index="0" speed="13.90" length="5.00" shape="201.65,195.25 201.84,196.61 202.43,197.58 203.39,198.16 204.75,198.35"/>
    </edge>
    <edge id=":12_9" function="internal">
        <lane id=":12_9_0" index="0" speed="13.90" length="9.50" shape="201.65,195.25 201.65,204.75"/>
    </edge>
    <edge id=":12_10" function="internal">
        <lane id=":12_10_0" index="0" speed="13.90" length="5.28" shape="201.65,195.25 201.25,198.05 200.05,200.05 199.95,200.11"/>
    </edge>
    <edge id=":12_11" function="internal">
        <lane id=":12_11_0" index="0" speed="13.90" length="2.41" shape="201.65,195.25 200.83,196.49 200.00,196.90"/>
    </edge>
    <edge id=":12_18" function="internal">
        <lane id=":12_18_0" index="0" speed="13.90" length="5.04" shape="199.95,200.11 198.05,201.25 195.25,201.65"/>
    </edge>
    <edge id=":12_19" function="internal">
        <lane id=":12_19_0" index="0" speed="13.90" length="2.41" shape="200.00,196.90 199.18,196.49 198.35,195.25"/>
    </edge>
    <edge id=":12_12" function="internal">
        <lane id=":12_12_0" index="0" speed="13.90" length="5.00" shape="195.25,198.35 196.61,198.16 197.58,197.57 198.16,196.61 198.35,195.25"/>
    </edge>
    <edge id=":12_13" function="internal">
        <lane id=":12_13_0" index="0" speed="13.90" length="9.50" shape="195.25,198.35 204.75,198.35"/>
    </edge>
    <edge id=":12_14" function="internal">
        <lane id=":12_14_0" index="0" speed="13.90" length="10.32" shape="195.25,198.35 198.05,198.75 200.05,199.95 201.25,201.95 201.65,204.75"/>
    </edge>
    <edge id=":12_15" function="internal">
        <lane id=":12_15_0" index="0" speed="13.90" length="4.82" shape="195.25,198.35 196.49,199.17 196.90,200.00 196.49,200.82 195.25,201.65"/>
    </edge>
    <edge id=":13_0" function="internal">
        <lane id=":13_0_0" index="0" speed="13.90" length="5.00" shape="298.35,204.75 298.16,203.39 297.58,202.42 296.61,201.84 295.25,201.65"/>
    </edge>
    <edge id=":13_1" function="internal">
        <lane id=":13_1_0" index="0" speed="13.90" length="9.50" shape="298.35,204.75 298.35,195.25"/>
    </edge>
    <edge id=":13_2" function="internal">
        <lane id=":13_2_0" index="0" speed="13.90" length="5.28" shape="298.35,204.75 298.75,201.95 299.95,199.95 300.05,199.89"/>
    </edge>
    <edge id=":13_3" function="internal">
        <lane id=":13_3_0" index="0" speed="13.90" length="2.41" shape="298.35,204.75 299.17,203.51 300.00,203.10"/>
    </edge>
    <edge id=":13_16" function="internal">
        <lane id=":13_16_0" index="0" speed="13.90" length="5.04" shape="300.05,199.89 301.95,198.75 304.75,198.35"/>
    </edge>
    <edge id=":13_17" function="internal">
        <lane id=":13_17_0" index="0" speed="13.90" length="2.41" shape="300.00,203.10 300.82,203.51 301.65,204.75"/>
    </edge>
    <edge id=":13_4" function="internal">
        <lane id=":13_4_0" index="0" speed="13.90" length="5.00" shape="304.75,201.65 303.39,201.84 302.42,202.43 301.84,203.39 301.65,204.75"/>
    </edge>
    <edge id=":13_5" function="internal">
        <lane id=":13_5_0" index="0" speed="13.90" length="9.50" shape="304.75,201.65 295.25,201.65"/>
    </edge>
    <edge id=":13_6" function="internal">
        <lane id=":13_6_0" index="0" speed="13.90" length="10.32" shape="304.75,201.65 301.95,201.25 299.95,200.05 298.75,198.05 298.35,195.25"/>
    </edge>
    <edge id=":13_7" function="internal">
        <lane id=":13_7_0" index="0" speed="13.90" length="4.82" shape="304.75,201.65 303.51,200.83 303.10,200.00 303.51,199.18 304.75,198.35"/>
    </edge>
    <edge id=":13_8" function="internal">
        <lane id=":13_8_0" index="0" speed="13.90" length="5.00" shape="301.65,195.25 301.84,196.61 302.42,197.58 303.39,198.16 304.75,198.35"/>
    </edge>
    <edge id=":13_9" function="internal">
        <lane id=":13_9_0" index="0" speed="13.90" length="9.50" shape="301.65,195.25 301.65,204.75"/>
    </edge>
    <edge id=":13_10" function="internal">
        <lane id=":13_10_0" index="0" speed="13.90" length="5.28" shape="301.65,195.25 301.25,198.05 300.05,200.05 299.95,200.11"/>
    </edge>
    <edge id=":13_11" function="internal">
        <lane id=":13_11_0" index="0" speed="13.90" length="2.41" shape="301.65,195.25 300.83,196.49 300.00,196.90"/>
    </edge>
    <edge id=":13_18" function="internal">
        <lane id=":13_18_0" index="0" speed="13.90" length="5.04" shape="299.95,200.11 298.05,201.25 295.25,201.65"/>
    </edge>
    <edge id=":13_19" function="internal">
        <lane id=":13_19_0" index="0" speed="13.90" length="2.41" shape="300.00,196.90 299.18,196.49 298.35,195.25"/>
    </edge>
    <edge id=":13_12" function="internal">
        <lane id=":13_12_0" index="0" speed="13.90" length="5.00" shape="295.25,198.35 296.61,198.16 297.58,197.57 298.16,196.61 298.35,195.25"/>
    </edge>
    <edge id=":13_13" function="internal">
        <lane id=":13_13_0" index="0" speed="13.90" length="9.50" shape="295.25,198.35 304.75,198.35"/>
    </edge>
    <edge id=":13_14" function="internal">
        <lane id=":13_14_0" index="0" speed="13.90" length="10.32" shape="295.25,198.35 298.05,198.75 300.05,199.95 301.25,201.95 301.65,204.75"/>
    </edge>
    <edge id=":13_15" function="internal">
        <lane id=":13_15_0" index="0" speed="13.90" length="4.82" shape="295.25,198.35 296.49,199.17 296.90,200.00 296.49,200.82 295.25,201.65"/>
    </edge>
    <edge id=":14_0" function="internal">
        <lane id=":14_0_0" index="0" speed="13.90" length="5.00" shape="398.35,204.75 398.16,203.39 397.58,202.42 396.61,201.84 395.25,201.65"/>
    </edge>
    <edge id=":14_1" function="internal">
        <lane id=":14_1_0" index="0" speed="13.90" length="9.50" shape="398.35,204.75 398.35,195.25"/>
    </edge>
    <edge id=":14_2" function="internal">
        <lane id=":14_2_0" index="0" speed="13.90" length="2.41" shape="398.35,204.75 399.17,203.51 400.00,203.10"/>
    </edge>
    <edge id=":14_9" function="internal">
        <lane id=":14_9_0" index="0" speed="13.90" length="2.41" shape="400.00,203.10 400.82,203.51 401.65,204.75"/>
    </edge>
    <edge id=":14_3" function="internal">
        <lane id=":14_3_0" index="0" speed="13.90" length="9.50" shape="401.65,195.25 401.65,204.75"/>
    </edge>
    <edge id=":14_4" function="internal">
        <lane id=":14_4_0" index="0" speed="13.90" length="5.28" shape="401.65,195.25 401.25,198.05 400.05,200.05 399.95,200.11"/>
    </edge>
    <edge id=":14_5" function="internal">
        <lane id=":14_5_0" index="0" speed="13.90" length="2.41" shape="401.65,195.25 400.83,196.49 400.00,196.90"/>
    </edge>
    <edge id=":14_10" function="internal">
        <lane id=":14_10_0" index="0" speed="13.90" length="5.04" shape="399.95,200.11 398.05,201.25 395.25,201.65"/>
    </edge>
    <edge id=":14_11" function="internal">
        <lane id=":14_11_0" index="0" speed="13.90" length="2.41" shape="400.00,196.90 399.18,196.49 398.35,195.25"/>
    </edge>
    <edge id=":14_6" function="internal">
        <lane id=":14_6_0" index="0" speed="13.90" length="5.00" shape="395.25,198.35 396.61,198.16 397.58,197.57 398.16,196.61 398.35,195.25"/>
    </edge>
    <edge id=":14_7" function="internal">
        <lane id=":14_7_0" index="0" speed="13.90" length="10.32" shape="395.25,198.35 398.05,198.75 400.05,199.95 401.25,201.95 401.65,204.75"/>
    </edge>
    <edge id=":14_8" function="internal">
        <lane id=":14_8_0" index="0" speed="13.90" length="4.82" shape="395.25,198.35 396.49,199.17 396.90,200.00 396.49,200.82 395.25,201.65"/>
    </edge>
    <edge id=":15_0" function="internal">
        <lane id=":15_0_0" index="0" speed="13.90" length="9.50" shape="-1.65,304.75 -1.65,295.25"/>
    </edge>
    <edge id=":15_1" function="internal">
        <lane id=":15_1_0" index="0" speed="13.90" length="5.28" shape="-1.65,304.75 -1.25,301.95 -0.05,299.95 0.05,299.89"/>
    </edge>
    <edge id=":15_2" function="internal">
        <lane id=":15_2_0" index="0" speed="13.90" length="2.41" shape="-1.65,304.75 -0.83,303.51 0.00,303.10"/>
    </edge>
    <edge id=":15_9" function="internal">
        <lane id=":15_9_0" index="0" speed="13.90" length="5.04" shape="0.05,299.89 1.95,298.75 4.75,298.35"/>
    </edge>
    <edge id=":15_10" function="internal">
        <lane id=":15_10_0" index="0" speed="13.90" length="2.41" shape="0.00,303.10 0.83,303.51 1.65,304.75"/>
    </edge>
    <edge id=":15_3" function="internal">
        <lane id=":15_3_0" index="0" speed="13.90" length="5.00" shape="4.75,301.65 3.39,301.84 2.43,302.42 1.84,303.39 1.65,304.75"/>
    </edge>
    <edge id=":15_4" function="internal">
        <lane id=":15_4_0" index="0" speed="13.90" length="10.32" shape="4.75,301.65 1.95,301.25 -0.05,300.05 -1.25,298.05 -1.65,295.25"/>
    </edge>
    <edge id=":15_5" function="internal">
        <lane id=":15_5_0" index="0" speed="13.90" length="4.82" shape="4.75,301.65 3.51,300.83 3.10,300.00 3.51,299.18 4.75,298.35"/>
    </edge>
    <edge id=":15_6" function="internal">
        <lane id=":15_6_0" index="0" speed="13.90" length="5.00" shape="1.65,295.25 1.84,296.61 2.43,297.58 3.39,298.16 4.75,298.35"/>
    </edge>
    <edge id=":15_7" function="internal">
        <lane id=":15_7_0" index="0" speed="13.90" length="9.50" shape="1.65,295.25 1.65,304.75"/>
    </edge>
    <edge id=":15_8" function="internal">
        <lane id=":15_8_0" index="0" speed="13.90" length="2.41" shape="1.65,295.25 0.83,296.49 0.00,296.90"/>
    </edge>
    <edge id=":15_11" function="internal">
        <lane id=":15_11_0" index="0" speed="13.90" length="2.41" shape="0.00,296.90 -0.83,296.49 -1.65,295.25"/>
    </edge>
    <edge id=":16_0" function="internal">
        <lane id=":16_0_0" index="0" speed="13.90" length="5.00" shape="98.35,304.75 98.16,303.39 97.57,302.42 96.61,301.84 95.25,301.65"/>
    </edge>
    <edge id=":16_1" function="internal">
        <lane id=":16_1_0" index="0" speed="13.90" length="9.50" shape="98.35,304.75 98.35,295.25"/>
    </edge>
    <edge id=":16_2" function="internal">
        <lane id=":16_2_0" index="0" speed="13.90" length="5.28" shape="98.35,304.75 98.75,301.95 99.95,299.95 100.05,299.89"/>
    </edge>
    <edge id=":16_3" function="internal">
        <lane id=":16_3_0" index="0" speed="13.90" length="2.41" shape="98.35,304.75 99.18,303.51 100.00,303.10"/>
    </edge>
    <edge id=":16_16" function="internal">
        <lane id=":16_16_0" index="0" speed="13.90" length="5.04" shape="100.05,299.89 101.95,298.75 104.75,298.35"/>
    </edge>
    <edge id=":16_17" function="internal">
        <lane id=":16_17_0" index="0" speed="13.90" length="2.41" shape="100.00,303.10 100.83,303.51 101.65,304.75"/>
    </edge>
    <edge id=":16_4" function="internal">
        <lane id=":16_4_0" index="0" speed="13.90" length="5.00" shape="104.75,301.65 103.39,301.84 102.43,302.42 101.84,303.39 101.65,304.75"/>
    </edge>
    <edge id=":16_5" function="internal">
        <lane id=":16_5_0" index="0" speed="13.90" length="9.50" shape="104.75,301.65 95.25,301.65"/>
    </edge>
    <edge id=":16_6" function="internal">
        <lane id=":16_6_0" index="0" speed="13.90" length="10.32" shape="104.75,301.65 101.95,301.25 99.95,300.05 98.75,298.05 98.35,295.25"/>
    </edge>
    <edge id=":16_7" function="internal">
        <lane id=":16_7_0" index="0" speed="13.90" length="4.82" shape="104.75,301.65 103.51,300.83 103.10,300.00 103.51,299.18 104.75,298.35"/>
    </edge>
    <edge id=":16_8" function="internal">
        <lane id=":16_8_0" index="0" speed="13.90" length="5.00" shape="101.65,295.25 101.84,296.61 102.43,297.58 103.39,298.16 104.75,298.35"/>
    </edge>
    <edge id=":16_9" function="internal">
        <lane id=":16_9_0" index="0" speed="13.90" length="9.50" shape="101.65,295.25 101.65,304.75"/>
    </edge>
    <edge id=":16_10" function="internal">
        <lane id=":16_10_0" index="0" speed="13.90" length="5.28" shape="101.65,295.25 101.25,298.05 100.05,300.05 99.95,300.11"/>
    </edge>
    <edge id=":16_11" function="internal">
        <lane id=":16_11_0" index="0" speed="13.90" length="2.41" shape="101.65,295.25 100.82,296.49 100.00,296.90"/>
    </edge>
    <edge id=":16_18" function="internal">
        <lane id=":16_18_0" index="0" speed="13.90" length="5.04" shape="99.95,300.11 98.05,301.25 95.25,301.65"/>
    </edge>
    <edge id=":16_19" function="internal">
        <lane id=":16_19_0" index="0" speed="13.90" length="2.41" shape="100.00,296.90 99.17,296.49 98.35,295.25"/>
    </edge>
    <edge id=":16_12" function="internal">
        <lane id=":16_12_0" index="0" speed="13.90" length="5.00" shape="95.25,298.35 96.61,298.16 97.57,297.58 98.16,296.61 98.35,295.25"/>
    </edge>
    <edge id=":16_13" function="internal">
        <lane id=":16_13_0" index="0" speed="13.90" length="9.50" shape="95.25,298.35 104.75,298.35"/>
    </edge>
    <edge id=":16_14" function="internal">
        <lane id=":16_14_0" index="0" speed="13.90" length="10.32" shape="95.25,298.35 98.05,298.75 100.05,299.95 101.25,301.95 101.65,304.75"/>
    </edge>
    <edge id=":16_15" function="internal">
        <lane id=":16_15_0" index="0" speed="13.90" length="4.82" shape="95.25,298.35 96.49,299.17 96.90,300.00 96.49,300.82 95.25,301.65"/>
    </edge>
    <edge id=":17_0" function="internal">
        <lane id=":17_0_0" index="0" speed="13.90" length="5.00" shape="198.35,304.75 198.16,303.39 197.57,302.42 196.61,301.84 195.25,301.65"/>
    </edge>
    <edge id=":17_1" function="internal">
        <lane id=":17_1_0" index="0" speed="13.90" length="9.50" shape="198.35,304.75 198.35,295.25"/>
    </edge>
    <edge id=":17_2" function="internal">
        <lane id=":17_2_0" index="0" speed="13.90" length="5.28" shape="198.35,304.75 198.75,301.95 199.95,299.95 200.05,299.89"/>
    </edge>
    <edge id=":17_3" function="internal">
        <lane id=":17_3_0" index="0" speed="13.90" length="2.41" shape="198.35,304.75 199.17,303.51 200.00,303.10"/>
    </edge>
    <edge id=":17_16" function="internal">
        <lane id=":17_16_0" index="0" speed="13.90" length="5.04" shape="200.05,299.89 201.95,298.75 204.75,298.35"/>
    </edge>
    <edge id=":17_17" function="internal">
        <lane id=":17_17_0" index="0" speed="13.90" length="2.41" shape="200.00,303.10 200.82,303.51 201.65,304.75"/>
    </edge>
    <edge id=":17_4" function="internal">
        <lane id=":17_4_0" index="0" speed="13.90" length="5.00" shape="204.75,301.65 203.39,301.84 202.42,302.42 201.84,303.39 201.65,304.75"/>
    </edge>
    <edge id=":17_5" function="internal">
        <lane id=":17_5_0" index="0" speed="13.90" length="9.50" shape="204.75,301.65 195.25,301.65"/>
    </edge>
    <edge id=":17_6" function="internal">
        <lane id=":17_6_0" index="0" speed="13.90" length="10.32" shape="204.75,301.65 201.95,301.25 199.95,300.05 198.75,298.05 198.35,295.25"/>
    </edge>
    <edge id=":17_7" function="internal">
        <lane id=":17_7_0" index="0" speed="13.90" length="4.82" shape="204.75,301.65 203.51,300.83 203.10,300.00 203.51,299.18 204.75,298.35"/>
    </edge>
    <edge id=":17_8" function="internal">
        <lane id=":17_8_0" index="0" speed="13.90" length="5.00" shape="201.65,295.25 201.84,296.61 202.43,297.58 203.39,298.16 204.75,298.35"/>
    </edge>
    <edge id=":17_9" function="internal">
        <lane id=":17_9_0" index="0" speed="13.90" length="9.50" shape="201.65,295.25 201.65,304.75"/>
    </edge>
    <edge id=":17_10" function="internal">
        <lane id=":17_10_0" index="0" speed="13.90" length="5.28" shape="201.65,295.25 201.25,298.05 200.05,300.05 199.95,300.11"/>
    </edge>
    <edge id=":17_11" function="internal">
        <lane id=":17_11_0" index="0" speed="13.90" length="2.41" shape="201.65,295.25 200.83,296.49 200.00,296.90"/>
    </edge>
    <edge id=":17_18" function="internal">
        <lane id=":17_18_0" index="0" speed="13.90" length="5.04" shape="199.95,300.11 198.05,301.25 195.25,301.65"/>
    </edge>
    <edge id=":17_19" function="internal">
        <lane id=":17_19_0" index="0" speed="13.90" length="2.41" shape="200.00,296.90 199.18,296.49 198.35,295.25"/>
    </edge>
    <edge id=":17_12" function="internal">
        <lane id=":17_12_0" index="0" speed="13.90" length="5.00" shape="195.25,298.35 196.61,298.16 197.58,297.58 198.16,296.61 198.35,295.25"/>
    </edge>
    <edge id=":17_13" function="internal">
        <lane id=":17_13_0" index="0" speed="13.90" length="9.50" shape="195.25,298.35 204.75,298.35"/>
    </edge>
    <edge id=":17_14" function="internal">
        <lane id=":17_14_0" index="0" speed="13.90" length="10.32" shape="195.25,298.35 198.05,298.75 200.05,299.95 201.25,301.95 201.65,304.75"/>
    </edge>
    <edge id=":17_15" function="internal">
        <lane id=":17_15_0" index="0" speed="13.90" length="4.82" shape="195.25,298.35 196.49,299.17 196.90,300.00 196.49,300.82 195.25,301.65"/>
    </edge>
    <edge id=":18_0" function="internal">
        <lane id=":18_0_0" index="0" speed="13.90" length="5.00" shape="298.35,304.75 298.16,303.39 297.58,302.42 296.61,301.84 295.25,301.65"/>
    </edge>
    <edge id=":18_1" function="internal">
        <lane id=":18_1_0" index="0" speed="13.90" length="9.50" shape="298.35,304.75 298.35,295.25"/>
    </edge>
    <edge id=":18_2" function="internal">
        <lane id=":18_2_0" index="0" speed="13.90" length="5.28" shape="298.35,304.75 298.75,301.95 299.95,299.95 300.05,299.89"/>
    </edge>
    <edge id=":18_3" function="internal">
        <lane id=":18_3_0" index="0" speed="13.90" length="2.41" shape="298.35,304.75 299.17,303.51 300.00,303.10"/>
    </edge>
    <edge id=":18_16" function="internal">
        <lane id=":18_16_0" index="0" speed="13.90" length="5.04" shape="300.05,299.89 301.95,298.75 304.75,298.35"/>
    </edge>
    <edge id=":18_17" function="internal">
        <lane id=":18_17_0" index="0" speed="13.90" length="2.41" shape="300.00,303.10 300.82,303.51 301.65,304.75"/>
    </edge>
    <edge id=":18_4" function="internal">
        <lane id=":18_4_0" index="0" speed="13.90" length="5.00" shape="304.75,301.65 303.39,301.84 302.42,302.42 301.84,303.39 301.65,304.75"/>
    </edge>
    <edge id=":18_5" function="internal">
        <lane id=":18_5_0" index="0" speed="13.90" length="9.50" shape="304.75,301.65 295.25,301.65"/>
    </edge>
    <edge id=":18_6" function="internal">
        <lane id=":18_6_0" index="0" speed="13.90" length="10.32" shape="304.75,301.65 301.95,301.25 299.95,300.05 298.75,298.05 298.35,295.25"/>
    </edge>
    <edge id=":18_7" function="internal">