<?xml version="1.0" encoding="UTF-8"?>

<!-- generated on Sun 03 Jan 2021 15:38:01 IST by Eclipse SUMO netedit Version 1.8.0
<configuration xmlns:xsi="http://www.w3.org/2001/XMLSchema-instance" xsi:noNamespaceSchemaLocation="http://sumo.dlr.de/xsd/netconvertConfiguration.xsd">

    <input>
        <sumo-net-file value="/home/sdeepakmallya/ros_ws/src/mrpp_sumo/graph_sumo/iitb_full.net.xml"/>
    </input>

    <output>
        <output-file value="/home/sdeepakmallya/ros_ws/src/mrpp_sumo/graph_sumo/iitb_full.net.xml"/>
        <plain-output-prefix value="/home/sdeepakmallya/ros_ws/src/mrpp_sumo/graph_sumo/iitb_full"/>
    </output>

    <processing>
        <geometry.min-radius.fix.railways value="false"/>
        <geometry.max-grade.fix value="false"/>
        <offset.disable-normalization value="true"/>
        <lefthand value="false"/>
    </processing>

    <junctions>
        <no-turnarounds value="true"/>
        <junctions.corner-detail value="5"/>
        <junctions.limit-turn-speed value="5.5"/>
        <rectangular-lane-cut value="false"/>
    </junctions>

    <pedestrian>
        <walkingareas value="false"/>
    </pedestrian>

    <report>
        <aggregate-warnings value="5"/>
    </report>

</configuration>
-->

<connections version="1.6" xmlns:xsi="http://www.w3.org/2001/XMLSchema-instance" xsi:noNamespaceSchemaLocation="http://sumo.dlr.de/xsd/connections_file.xsd">
    <connection from="-366913701#10" to="-699526248#2" fromLane="0" toLane="0"/>
    <connection from="-366913701#10" to="-366913701#9" fromLane="0" toLane="0"/>
    <connection from="-366913701#10" to="366913701#10" fromLane="0" toLane="0"/>

    <connection from="-366913701#11" to="-366913701#10" fromLane="0" toLane="0"/>
    <connection from="-366913701#11" to="765305322" fromLane="0" toLane="0"/>
    <connection from="-366913701#11" to="366913701#11" fromLane="0" toLane="0"/>

    <connection from="-366913701#12" to="-366913701#11" fromLane="0" toLane="0"/>
    <connection from="-366913701#12" to="39093477#0" fromLane="0" toLane="0"/>
    <connection from="-366913701#12" to="366913701#12" fromLane="0" toLane="0"/>

    <connection from="-366913701#13" to="-366913701#12" fromLane="0" toLane="0"/>
    <connection from="-366913701#13" to="366913701#13" fromLane="0" toLane="0"/>

    <connection from="-366913701#14" to="568771388#0" fromLane="0" toLane="0"/>
    <connection from="-366913701#14" to="-366913701#13" fromLane="0" toLane="0"/>
    <connection from="-366913701#14" to="366913701#14" fromLane="0" toLane="0"/>

    <connection from="-366913701#15" to="-366913701#14" fromLane="0" toLane="0"/>
    <connection from="-366913701#15" to="723515093#0" fromLane="0" toLane="0"/>
    <connection from="-366913701#15" to="366913701#15" fromLane="0" toLane="0"/>

    <connection from="-366913701#16" to="-366913701#15" fromLane="0" toLane="0"/>
    <connection from="-366913701#16" to="699796291#0" fromLane="0" toLane="0"/>
    <connection from="-366913701#16" to="366913701#16" fromLane="0" toLane="0"/>

    <connection from="-366913701#17" to="-366913701#16" fromLane="0" toLane="0"/>
    <connection from="-366913701#17" to="366913701#17" fromLane="0" toLane="0"/>

    <connection from="-366913701#18" to="-366913701#17" fromLane="0" toLane="0"/>
    <connection from="-366913701#18" to="366913701#18" fromLane="0" toLane="0"/>

    <connection from="-366913701#19" to="-366913701#18" fromLane="0" toLane="0"/>
    <connection from="-366913701#19" to="366913701#19" fromLane="0" toLane="0"/>

    <connection from="-366913701#2" to="gneE2" fromLane="0" toLane="0"/>
    <connection from="-366913701#2" to="gneE0" fromLane="0" toLane="0"/>
    <connection from="-366913701#2" to="366913701#2" fromLane="0" toLane="0"/>

    <connection from="-366913701#3" to="-366913701#2" fromLane="0" toLane="0"/>
    <connection from="-366913701#3" to="366913701#3" fromLane="0" toLane="0"/>

    <connection from="-366913701#4" to="-52511312" fromLane="0" toLane="0"/>
    <connection from="-366913701#4" to="-366913701#3" fromLane="0" toLane="0"/>
    <connection from="-366913701#4" to="366913701#4" fromLane="0" toLane="0"/>

    <connection from="-366913701#5" to="-366913701#4" fromLane="0" toLane="0"/>
    <connection from="-366913701#5" to="622415774#0" fromLane="0" toLane="0"/>
    <connection from="-366913701#5" to="366913701#5" fromLane="0" toLane="0"/>

    <connection from="-366913701#6" to="52664437#0" fromLane="0" toLane="0"/>
    <connection from="-366913701#6" to="-366913701#5" fromLane="0" toLane="0"/>
    <connection from="-366913701#6" to="366913701#6" fromLane="0" toLane="0"/>

    <connection from="-366913701#7" to="-366913701#6" fromLane="0" toLane="0"/>
    <connection from="-366913701#7" to="556314750#0" fromLane="0" toLane="0"/>
    <connection from="-366913701#7" to="366913701#7" fromLane="0" toLane="0"/>

    <connection from="-366913701#8" to="699526247" fromLane="0" toLane="0"/>
    <connection from="-366913701#8" to="-366913701#7" fromLane="0" toLane="0"/>
    <connection from="-366913701#8" to="366913701#8" fromLane="0" toLane="0"/>

    <connection from="-366913701#9" to="-366913701#8" fromLane="0" toLane="0"/>
    <connection from="-366913701#9" to="366913701#9" fromLane="0" toLane="0"/>

    <connection from="-39093477#0" to="366913701#12" fromLane="0" toLane="0"/>
    <connection from="-39093477#0" to="-366913701#11" fromLane="0" toLane="0"/>
    <connection from="-39093477#0" to="39093477#0" fromLane="0" toLane="0"/>

    <connection from="-39093477#1" to="-39093477#0" fromLane="0" toLane="0"/>
    <connection from="-39093477#1" to="39093477#1" fromLane="0" toLane="0"/>

    <connection from="-39093477#10" to="-39093477#9" fromLane="0" toLane="0"/>
    <connection from="-39093477#10" to="39093477#10" fromLane="0" toLane="0"/>

    <connection from="-39093477#12" to="723323003" fromLane="0" toLane="0"/>
    <connection from="-39093477#12" to="-39093477#10" fromLane="0" toLane="0"/>
    <connection from="-39093477#12" to="39093477#12" fromLane="0" toLane="0"/>

    <connection from="-39093477#13" to="-39093477#12" fromLane="0" toLane="0"/>
    <connection from="-39093477#13" to="52511319#0" fromLane="0" toLane="0"/>
    <connection from="-39093477#13" to="39093477#13" fromLane="0" toLane="0"/>

    <connection from="-39093477#2" to="-39093477#1" fromLane="0" toLane="0"/>
    <connection from="-39093477#2" to="52511314#0" fromLane="0" toLane="0"/>
    <connection from="-39093477#2" to="39093477#2" fromLane="0" toLane="0"/>

    <connection from="-39093477#3" to="-39093477#2" fromLane="0" toLane="0"/>
    <connection from="-39093477#3" to="-52511319#2" fromLane="0" toLane="0"/>
    <connection from="-39093477#3" to="39093477#3" fromLane="0" toLane="0"/>

    <connection from="-39093477#4" to="556314738#0" fromLane="0" toLane="0"/>
    <connection from="-39093477#4" to="-39093477#3" fromLane="0" toLane="0"/>
    <connection from="-39093477#4" to="39093477#4" fromLane="0" toLane="0"/>

    <connection from="-39093477#5" to="700019124" fromLane="0" toLane="0"/>
    <connection from="-39093477#5" to="-39093477#4" fromLane="0" toLane="0"/>
    <connection from="-39093477#5" to="39093477#5" fromLane="0" toLane="0"/>

    <connection from="-39093477#6" to="52656539#0" fromLane="0" toLane="0"/>
    <connection from="-39093477#6" to="-39093477#5" fromLane="0" toLane="0"/>
    <connection from="-39093477#6" to="39093477#6" fromLane="0" toLane="0"/>

    <connection from="-39093477#7" to="699851820" fromLane="0" toLane="0"/>
    <connection from="-39093477#7" to="-39093477#6" fromLane="0" toLane="0"/>
    <connection from="-39093477#7" to="39093477#7" fromLane="0" toLane="0"/>

    <connection from="-39093477#8" to="-39093477#7" fromLane="0" toLane="0"/>
    <connection from="-39093477#8" to="39093477#8" fromLane="0" toLane="0"/>

    <connection from="-39093477#9" to="-39093477#8" fromLane="0" toLane="0"/>
    <connection from="-39093477#9" to="436993177#0" fromLane="0" toLane="0"/>
    <connection from="-39093477#9" to="39093477#9" fromLane="0" toLane="0"/>

    <connection from="-436993177#0" to="39093477#9" fromLane="0" toLane="0"/>
    <connection from="-436993177#0" to="-39093477#8" fromLane="0" toLane="0"/>
    <connection from="-436993177#0" to="436993177#0" fromLane="0" toLane="0"/>

    <connection from="-436993177#1" to="-436993177#0" fromLane="0" toLane="0"/>
    <connection from="-436993177#1" to="436993177#1" fromLane="0" toLane="0"/>

    <connection from="-436993178" to="52511319#2" fromLane="0" toLane="0"/>
    <connection from="-436993178" to="52511330" fromLane="0" toLane="0"/>
    <connection from="-436993178" to="-52511319#1" fromLane="0" toLane="0"/>
    <connection from="-436993178" to="436993178" fromLane="0" toLane="0"/>

    <connection from="-436993182" to="436993183#0" fromLane="0" toLane="0"/>
    <connection from="-436993182" to="-723323003" fromLane="0" toLane="0"/>
    <connection from="-436993182" to="436993182" fromLane="0" toLane="0"/>

    <connection from="-436993183#0" to="-723323003" fromLane="0" toLane="0"/>
    <connection from="-436993183#0" to="436993182" fromLane="0" toLane="0"/>
    <connection from="-436993183#0" to="436993183#0" fromLane="0" toLane="0"/>

    <connection from="-436993744" to="-436993183#0" fromLane="0" toLane="0"/>
    <connection from="-436993744" to="436993183#1" fromLane="0" toLane="0"/>

    <connection from="-436993745" to="-52656539#0" fromLane="0" toLane="0"/>
    <connection from="-436993745" to="52656539#1" fromLane="0" toLane="0"/>
    <connection from="-436993745" to="436993745" fromLane="0" toLane="0"/>

    <connection from="-436993746#0" to="700019123#1" fromLane="0" toLane="0"/>
    <connection from="-436993746#0" to="-700019123#0" fromLane="0" toLane="0"/>
    <connection from="-436993746#0" to="436993746#0" fromLane="0" toLane="0"/>

    <connection from="-436993746#1" to="436993747" fromLane="0" toLane="0"/>
    <connection from="-436993746#1" to="-436993746#0" fromLane="0" toLane="0"/>
    <connection from="-436993746#1" to="436993746#1" fromLane="0" toLane="0"/>

    <connection from="-436993746#2" to="-436993746#1" fromLane="0" toLane="0"/>
    <connection from="-436993746#2" to="700019123#0" fromLane="0" toLane="0"/>
    <connection from="-436993746#2" to="436993746#2" fromLane="0" toLane="0"/>

    <connection from="-436993747" to="-436993746#0" fromLane="0" toLane="0"/>
    <connection from="-436993747" to="436993746#1" fromLane="0" toLane="0"/>
    <connection from="-436993747" to="436993747" fromLane="0" toLane="0"/>

    <connection from="-439272703" to="439272703" fromLane="0" toLane="0"/>

    <connection from="-52511308" to="556314750#3" fromLane="0" toLane="0"/>
    <connection from="-52511308" to="-556314750#2" fromLane="0" toLane="0"/>
    <connection from="-52511308" to="52511308" fromLane="0" toLane="0"/>

    <connection from="-52511312" to="52663744#2" fromLane="0" toLane="0"/>
    <connection from="-52511312" to="-52663744#1" fromLane="0" toLane="0"/>
    <connection from="-52511312" to="52511312" fromLane="0" toLane="0"/>

    <connection from="-52511313#1" to="-622415774#4" fromLane="0" toLane="0"/>
    <connection from="-52511313#1" to="52511313#1" fromLane="0" toLane="0"/>

    <connection from="-52511313#2" to="-556314750#4" fromLane="0" toLane="0"/>
    <connection from="-52511313#2" to="-52511313#1" fromLane="0" toLane="0"/>
    <connection from="-52511313#2" to="52511313#2" fromLane="0" toLane="0"/>

    <connection from="-52511313#3" to="-52511313#2" fromLane="0" toLane="0"/>
    <connection from="-52511313#3" to="52656692#0" fromLane="0" toLane="0"/>
    <connection from="-52511313#3" to="52511313#3" fromLane="0" toLane="0"/>

    <connection from="-52511313#4" to="-52511313#3" fromLane="0" toLane="0"/>
    <connection from="-52511313#4" to="723512526" fromLane="0" toLane="0"/>
    <connection from="-52511313#4" to="52511313#4" fromLane="0" toLane="0"/>

    <connection from="-52511313#5" to="-52511313#4" fromLane="0" toLane="0"/>
    <connection from="-52511313#5" to="52511313#5" fromLane="0" toLane="0"/>

    <connection from="-52511314#0" to="39093477#2" fromLane="0" toLane="0"/>
    <connection from="-52511314#0" to="-39093477#1" fromLane="0" toLane="0"/>
    <connection from="-52511314#0" to="52511314#0" fromLane="0" toLane="0"/>

    <connection from="-52511314#3" to="-52511330" fromLane="0" toLane="0"/>
    <connection from="-52511314#3" to="-52511314#0" fromLane="0" toLane="0"/>
    <connection from="-52511314#3" to="52511314#3" fromLane="0" toLane="0"/>

    <connection from="-52511314#4" to="-439272703" fromLane="0" toLane="0"/>
    <connection from="-52511314#4" to="-52511314#3" fromLane="0" toLane="0"/>
    <connection from="-52511314#4" to="52511314#4" fromLane="0" toLane="0"/>

    <connection from="-52511314#5" to="-52656694" fromLane="0" toLane="0"/>
    <connection from="-52511314#5" to="-52511314#4" fromLane="0" toLane="0"/>
    <connection from="-52511314#5" to="-52511339#2" fromLane="0" toLane="0"/>
    <connection from="-52511314#5" to="52511314#5" fromLane="0" toLane="0"/>

    <connection from="-52511317#0" to="-556314750#3" fromLane="0" toLane="0"/>
    <connection from="-52511317#0" to="556314750#4" fromLane="0" toLane="0"/>
    <connection from="-52511317#0" to="52511317#0" fromLane="0" toLane="0"/>

    <connection from="-52511317#1" to="-52511317#0" fromLane="0" toLane="0"/>
    <connection from="-52511317#1" to="52511317#1" fromLane="0" toLane="0"/>

    <connection from="-52511319#0" to="39093477#13" fromLane="0" toLane="0"/>
    <connection from="-52511319#0" to="-39093477#12" fromLane="0" toLane="0"/>
    <connection from="-52511319#0" to="52511319#0" fromLane="0" toLane="0"/>

    <connection from="-52511319#1" to="-52511319#0" fromLane="0" toLane="0"/>
    <connection from="-52511319#1" to="-436993177#1" fromLane="0" toLane="0"/>
    <connection from="-52511319#1" to="52511319#1" fromLane="0" toLane="0"/>

    <connection from="-52511319#2" to="52511330" fromLane="0" toLane="0"/>
    <connection from="-52511319#2" to="-52511319#1" fromLane="0" toLane="0"/>
    <connection from="-52511319#2" to="436993178" fromLane="0" toLane="0"/>
    <connection from="-52511319#2" to="52511319#2" fromLane="0" toLane="0"/>

    <connection from="-52511326#0" to="-723515093#1" fromLane="0" toLane="0"/>
    <connection from="-52511326#0" to="-556314738#3" fromLane="0" toLane="0"/>
    <connection from="-52511326#0" to="52511326#0" fromLane="0" toLane="0"/>

    <connection from="-52511326#1" to="-52511326#0" fromLane="0" toLane="0"/>
    <connection from="-52511326#1" to="52511326#1" fromLane="0" toLane="0"/>

    <connection from="-52511330" to="-52511319#1" fromLane="0" toLane="0"/>
    <connection from="-52511330" to="436993178" fromLane="0" toLane="0"/>
    <connection from="-52511330" to="52511319#2" fromLane="0" toLane="0"/>
    <connection from="-52511330" to="52511330" fromLane="0" toLane="0"/>

    <connection from="-52511339#0" to="-52511313#5" fromLane="0" toLane="0"/>
    <connection from="-52511339#0" to="52511339#0" fromLane="0" toLane="0"/>

    <connection from="-52511339#1" to="-52511339#0" fromLane="0" toLane="0"/>
    <connection from="-52511339#1" to="52511339#1" fromLane="0" toLane="0"/>

    <connection from="-52511339#2" to="-52511339#1" fromLane="0" toLane="0"/>
    <connection from="-52511339#2" to="52511339#2" fromLane="0" toLane="0"/>

    <connection from="-52656539#0" to="-39093477#5" fromLane="0" toLane="0"/>
    <connection from="-52656539#0" to="39093477#6" fromLane="0" toLane="0"/>
    <connection from="-52656539#0" to="52656539#0" fromLane="0" toLane="0"/>

    <connection from="-52656539#1" to="436993745" fromLane="0" toLane="0"/>
    <connection from="-52656539#1" to="-52656539#0" fromLane="0" toLane="0"/>
    <connection from="-52656539#1" to="52656539#1" fromLane="0" toLane="0"/>

    <connection from="-52656692#0" to="52511313#3" fromLane="0" toLane="0"/>
    <connection from="-52656692#0" to="-52511313#2" fromLane="0" toLane="0"/>
    <connection from="-52656692#0" to="52656692#0" fromLane="0" toLane="0"/>

    <connection from="-52656692#1" to="-723512526" fromLane="0" toLane="0"/>
    <connection from="-52656692#1" to="-52656692#0" fromLane="0" toLane="0"/>
    <connection from="-52656692#1" to="52656692#1" fromLane="0" toLane="0"/>

    <connection from="-52656694" to="-778465705" fromLane="0" toLane="0"/>
    <connection from="-52656694" to="-39093477#13" fromLane="0" toLane="0"/>
    <connection from="-52656694" to="52656694" fromLane="0" toLane="0"/>

    <connection from="-52663744#0" to="52663744#0" fromLane="0" toLane="0"/>

    <connection from="-52663744#1" to="-52664441#1" fromLane="0" toLane="0"/>
    <connection from="-52663744#1" to="-52663744#0" fromLane="0" toLane="0"/>
    <connection from="-52663744#1" to="52663744#1" fromLane="0" toLane="0"/>

    <connection from="-52663744#2" to="-52663744#1" fromLane="0" toLane="0"/>
    <connection from="-52663744#2" to="52511312" fromLane="0" toLane="0"/>
    <connection from="-52663744#2" to="52663744#2" fromLane="0" toLane="0"/>

    <connection from="-52663744#3" to="-692042225" fromLane="0" toLane="0"/>
    <connection from="-52663744#3" to="-52663744#2" fromLane="0" toLane="0"/>
    <connection from="-52663744#3" to="52663744#3" fromLane="0" toLane="0"/>

    <connection from="-52663745#0" to="622415786#1" fromLane="0" toLane="0"/>
    <connection from="-52663745#0" to="-622415786#0" fromLane="0" toLane="0"/>
    <connection from="-52663745#0" to="52663745#0" fromLane="0" toLane="0"/>

    <connection from="-52663745#1" to="-622415774#1" fromLane="0" toLane="0"/>
    <connection from="-52663745#1" to="-52663745#0" fromLane="0" toLane="0"/>
    <connection from="-52663745#1" to="622415774#2" fromLane="0" toLane="0"/>
    <connection from="-52663745#1" to="52663745#1" fromLane="0" toLane="0"/>

    <connection from="-52664437#0" to="-366913701#5" fromLane="0" toLane="0"/>
    <connection from="-52664437#0" to="366913701#6" fromLane="0" toLane="0"/>
    <connection from="-52664437#0" to="52664437#0" fromLane="0" toLane="0"/>

    <connection from="-52664437#1" to="-52663744#3" fromLane="0" toLane="0"/>
    <connection from="-52664437#1" to="-52664437#0" fromLane="0" toLane="0"/>
    <connection from="-52664437#1" to="52664437#1" fromLane="0" toLane="0"/>

    <connection from="-52664437#2" to="-52664437#1" fromLane="0" toLane="0"/>
    <connection from="-52664437#2" to="699526248#0" fromLane="0" toLane="0"/>
    <connection from="-52664437#2" to="52664437#2" fromLane="0" toLane="0"/>

    <connection from="-52664440#0" to="723323006#4" fromLane="0" toLane="0"/>
    <connection from="-52664440#0" to="-723323006#3" fromLane="0" toLane="0"/>
    <connection from="-52664440#0" to="52664440#0" fromLane="0" toLane="0"/>

    <connection from="-52664441#0" to="-723323006#1" fromLane="0" toLane="0"/>
    <connection from="-52664441#0" to="723323006#2" fromLane="0" toLane="0"/>
    <connection from="-52664441#0" to="52664441#0" fromLane="0" toLane="0"/>

    <connection from="-52664441#1" to="705414725" fromLane="0" toLane="0"/>
    <connection from="-52664441#1" to="-52664441#0" fromLane="0" toLane="0"/>
    <connection from="-52664441#1" to="52664441#1" fromLane="0" toLane="0"/>

    <connection from="-556314738#0" to="-39093477#3" fromLane="0" toLane="0"/>
    <connection from="-556314738#0" to="39093477#4" fromLane="0" toLane="0"/>
    <connection from="-556314738#0" to="556314738#0" fromLane="0" toLane="0"/>

    <connection from="-556314738#1" to="-556314738#0" fromLane="0" toLane="0"/>
    <connection from="-556314738#1" to="556314738#1" fromLane="0" toLane="0"/>

    <connection from="-556314738#2" to="-556314738#1" fromLane="0" toLane="0"/>
    <connection from="-556314738#2" to="556314738#2" fromLane="0" toLane="0"/>

    <connection from="-556314738#3" to="-556314738#2" fromLane="0" toLane="0"/>
    <connection from="-556314738#3" to="556314738#3" fromLane="0" toLane="0"/>

    <connection from="-556314750#0" to="366913701#7" fromLane="0" toLane="0"/>
    <connection from="-556314750#0" to="-366913701#6" fromLane="0" toLane="0"/>
    <connection from="-556314750#0" to="556314750#0" fromLane="0" toLane="0"/>

    <connection from="-556314750#1" to="-556314750#0" fromLane="0" toLane="0"/>
    <connection from="-556314750#1" to="-52663745#1" fromLane="0" toLane="0"/>
    <connection from="-556314750#1" to="556314750#1" fromLane="0" toLane="0"/>

    <connection from="-556314750#2" to="-52511317#1" fromLane="0" toLane="0"/>
    <connection from="-556314750#2" to="-556314750#1" fromLane="0" toLane="0"/>
    <connection from="-556314750#2" to="556314750#2" fromLane="0" toLane="0"/>

    <connection from="-556314750#3" to="-556314750#2" fromLane="0" toLane="0"/>
    <connection from="-556314750#3" to="52511308" fromLane="0" toLane="0"/>
    <connection from="-556314750#3" to="556314750#3" fromLane="0" toLane="0"/>

    <connection from="-556314750#4" to="52511317#0" fromLane="0" toLane="0"/>
    <connection from="-556314750#4" to="-556314750#3" fromLane="0" toLane="0"/>
    <connection from="-556314750#4" to="556314750#4" fromLane="0" toLane="0"/>

    <connection from="-568771388#0" to="-366913701#13" fromLane="0" toLane="0"/>
    <connection from="-568771388#0" to="366913701#14" fromLane="0" toLane="0"/>
    <connection from="-568771388#0" to="568771388#0" fromLane="0" toLane="0"/>

    <connection from="-568771388#1" to="-568771388#0" fromLane="0" toLane="0"/>
    <connection from="-568771388#1" to="568771388#1" fromLane="0" toLane="0"/>

    <connection from="-568771388#2" to="-723323007" fromLane="0" toLane="0"/>
    <connection from="-568771388#2" to="-568771388#1" fromLane="0" toLane="0"/>
    <connection from="-568771388#2" to="568771388#2" fromLane="0" toLane="0"/>

    <connection from="-622415774#0" to="366913701#5" fromLane="0" toLane="0"/>
    <connection from="-622415774#0" to="-366913701#4" fromLane="0" toLane="0"/>
    <connection from="-622415774#0" to="622415774#0" fromLane="0" toLane="0"/>

    <connection from="-622415774#1" to="-622415774#0" fromLane="0" toLane="0"/>
    <connection from="-622415774#1" to="-622415784" fromLane="0" toLane="0"/>
    <connection from="-622415774#1" to="622415774#1" fromLane="0" toLane="0"/>

    <connection from="-622415774#2" to="52663745#1" fromLane="0" toLane="0"/>
    <connection from="-622415774#2" to="-622415774#1" fromLane="0" toLane="0"/>
    <connection from="-622415774#2" to="-52663745#0" fromLane="0" toLane="0"/>
    <connection from="-622415774#2" to="622415774#2" fromLane="0" toLane="0"/>

    <connection from="-622415774#3" to="-52511308" fromLane="0" toLane="0"/>
    <connection from="-622415774#3" to="-622415774#2" fromLane="0" toLane="0"/>
    <connection from="-622415774#3" to="622415774#3" fromLane="0" toLane="0"/>

    <connection from="-622415774#4" to="-622415774#3" fromLane="0" toLane="0"/>
    <connection from="-622415774#4" to="622415786#0" fromLane="0" toLane="0"/>
    <connection from="-622415774#4" to="622415774#4" fromLane="0" toLane="0"/>

    <connection from="-622415784" to="gneE1" fromLane="0" toLane="0"/>
    <connection from="-622415784" to="-622415786#1" fromLane="0" toLane="0"/>
    <connection from="-622415784" to="622415784" fromLane="0" toLane="0"/>

    <connection from="-622415786#0" to="622415774#4" fromLane="0" toLane="0"/>
    <connection from="-622415786#0" to="-622415774#3" fromLane="0" toLane="0"/>
    <connection from="-622415786#0" to="622415786#0" fromLane="0" toLane="0"/>

    <connection from="-622415786#1" to="-622415786#0" fromLane="0" toLane="0"/>
    <connection from="-622415786#1" to="52663745#0" fromLane="0" toLane="0"/>
    <connection from="-622415786#1" to="622415786#1" fromLane="0" toLane="0"/>

    <connection from="-686607369" to="-723323006#2" fromLane="0" toLane="0"/>
    <connection from="-686607369" to="723323006#3" fromLane="0" toLane="0"/>
    <connection from="-686607369" to="686607369" fromLane="0" toLane="0"/>

    <connection from="-692042225" to="-723323006#0" fromLane="0" toLane="0"/>
    <connection from="-692042225" to="723323006#1" fromLane="0" toLane="0"/>
    <connection from="-692042225" to="692042225" fromLane="0" toLane="0"/>

    <connection from="-699526247" to="-366913701#7" fromLane="0" toLane="0"/>
    <connection from="-699526247" to="366913701#8" fromLane="0" toLane="0"/>
    <connection from="-699526247" to="699526247" fromLane="0" toLane="0"/>

    <connection from="-699526248#0" to="52664437#2" fromLane="0" toLane="0"/>
    <connection from="-699526248#0" to="-52664437#1" fromLane="0" toLane="0"/>
    <connection from="-699526248#0" to="699526248#0" fromLane="0" toLane="0"/>

    <connection from="-699526248#1" to="-699526248#0" fromLane="0" toLane="0"/>
    <connection from="-699526248#1" to="-699526247" fromLane="0" toLane="0"/>
    <connection from="-699526248#1" to="699526248#1" fromLane="0" toLane="0"/>

    <connection from="-699526248#2" to="700032720" fromLane="0" toLane="0"/>
    <connection from="-699526248#2" to="-699526248#1" fromLane="0" toLane="0"/>
    <connection from="-699526248#2" to="699526248#2" fromLane="0" toLane="0"/>

    <connection from="-699796291#0" to="366913701#16" fromLane="0" toLane="0"/>
    <connection from="-699796291#0" to="-366913701#15" fromLane="0" toLane="0"/>
    <connection from="-699796291#0" to="699796291#0" fromLane="0" toLane="0"/>

    <connection from="-699796291#1" to="-699796291#0" fromLane="0" toLane="0"/>
    <connection from="-699796291#1" to="699796291#1" fromLane="0" toLane="0"/>

    <connection from="-699851820" to="-39093477#6" fromLane="0" toLane="0"/>
    <connection from="-699851820" to="39093477#7" fromLane="0" toLane="0"/>
    <connection from="-699851820" to="699851820" fromLane="0" toLane="0"/>

    <connection from="-700019123#0" to="436993746#2" fromLane="0" toLane="0"/>
    <connection from="-700019123#0" to="-436993746#1" fromLane="0" toLane="0"/>
    <connection from="-700019123#0" to="700019123#0" fromLane="0" toLane="0"/>

    <connection from="-700019123#1" to="-700019123#0" fromLane="0" toLane="0"/>
    <connection from="-700019123#1" to="436993746#0" fromLane="0" toLane="0"/>
    <connection from="-700019123#1" to="700019123#1" fromLane="0" toLane="0"/>

    <connection from="-700019124" to="-39093477#4" fromLane="0" toLane="0"/>
    <connection from="-700019124" to="39093477#5" fromLane="0" toLane="0"/>
    <connection from="-700019124" to="700019124" fromLane="0" toLane="0"/>

    <connection from="-705414725" to="-52664441#0" fromLane="0" toLane="0"/>
    <connection from="-705414725" to="52664441#1" fromLane="0" toLane="0"/>
    <connection from="-705414725" to="705414725" fromLane="0" toLane="0"/>

    <connection from="-723323003" to="-39093477#10" fromLane="0" toLane="0"/>
    <connection from="-723323003" to="39093477#12" fromLane="0" toLane="0"/>
    <connection from="-723323003" to="723323003" fromLane="0" toLane="0"/>

    <connection from="-723323006#0" to="-52664437#2" fromLane="0" toLane="0"/>
    <connection from="-723323006#0" to="-568771388#2" fromLane="0" toLane="0"/>
    <connection from="-723323006#0" to="723323006#0" fromLane="0" toLane="0"/>

    <connection from="-723323006#1" to="692042225" fromLane="0" toLane="0"/>
    <connection from="-723323006#1" to="-723323006#0" fromLane="0" toLane="0"/>
    <connection from="-723323006#1" to="723323006#1" fromLane="0" toLane="0"/>

    <connection from="-723323006#2" to="52664441#0" fromLane="0" toLane="0"/>
    <connection from="-723323006#2" to="-723323006#1" fromLane="0" toLane="0"/>
    <connection from="-723323006#2" to="723323006#2" fromLane="0" toLane="0"/>

    <connection from="-723323006#3" to="686607369" fromLane="0" toLane="0"/>
    <connection from="-723323006#3" to="-723323006#2" fromLane="0" toLane="0"/>
    <connection from="-723323006#3" to="723323006#3" fromLane="0" toLane="0"/>

    <connection from="-723323006#4" to="-723323006#3" fromLane="0" toLane="0"/>
    <connection from="-723323006#4" to="52664440#0" fromLane="0" toLane="0"/>
    <connection from="-723323006#4" to="723323006#4" fromLane="0" toLane="0"/>

    <connection from="-723323007" to="-699526248#1" fromLane="0" toLane="0"/>
    <connection from="-723323007" to="699526248#2" fromLane="0" toLane="0"/>
    <connection from="-723323007" to="700032720" fromLane="0" toLane="0"/>

    <connection from="-723512526" to="52511313#4" fromLane="0" toLane="0"/>
    <connection from="-723512526" to="-52511313#3" fromLane="0" toLane="0"/>
    <connection from="-723512526" to="723512526" fromLane="0" toLane="0"/>

    <connection from="-723515093#0" to="366913701#15" fromLane="0" toLane="0"/>
    <connection from="-723515093#0" to="-366913701#14" fromLane="0" toLane="0"/>
    <connection from="-723515093#0" to="723515093#0" fromLane="0" toLane="0"/>

    <connection from="-723515093#1" to="-723515093#0" fromLane="0" toLane="0"/>
    <connection from="-723515093#1" to="723515093#1" fromLane="0" toLane="0"/>

    <connection from="-765305322" to="366913701#11" fromLane="0" toLane="0"/>
    <connection from="-765305322" to="-366913701#10" fromLane="0" toLane="0"/>
    <connection from="-765305322" to="765305322" fromLane="0" toLane="0"/>

    <connection from="-778465705" to="-52511314#5" fromLane="0" toLane="0"/>
    <connection from="-778465705" to="-52656692#1" fromLane="0" toLane="0"/>
    <connection from="-778465705" to="778465705" fromLane="0" toLane="0"/>

    <connection from="366913701#10" to="765305322" fromLane="0" toLane="0"/>
    <connection from="366913701#10" to="366913701#11" fromLane="0" toLane="0"/>
    <connection from="366913701#10" to="-366913701#10" fromLane="0" toLane="0"/>

    <connection from="366913701#11" to="39093477#0" fromLane="0" toLane="0"/>
    <connection from="366913701#11" to="366913701#12" fromLane="0" toLane="0"/>