<?xml version="1.0" encoding="UTF-8"?>

<!-- generated on Sun 03 Jan 2021 15:38:01 IST by Eclipse SUMO netedit Version 1.8.0
<configuration xmlns:xsi="http://www.w3.org/2001/XMLSchema-instance" xsi:noNamespaceSchemaLocation="http://sumo.dlr.de/xsd/netconvertConfiguration.xsd">

    <input>
        <sumo-net-file value="/home/sdeepakmallya/ros_ws/src/mrpp_sumo/graph_sumo/iitb_full.net.xml"/>
    </input>

    <output>
        <output-file value="/home/sdeepakmallya/ros_ws/src/mrpp_sumo/graph_sumo/iitb_full.net.xml"/>
        <plain-output-prefix value="/home/sdeepakmallya/ros_ws/src/mrpp_sumo/graph_sumo/iitb_full"/>
    </output>

    <processing>
        <geometry.min-radius.fix.railways value="false"/>
        <geometry.max-grade.fix value="false"/>
        <offset.disable-normalization value="true"/>
        <lefthand value="false"/>
    </processing>

    <junctions>
        <no-turnarounds value="true"/>
        <junctions.corner-detail value="5"/>
        <junctions.limit-turn-speed value="5.5"/>
        <rectangular-lane-cut value="false"/>
    </junctions>

    <pedestrian>
        <walkingareas value="false"/>
    </pedestrian>

    <report>
        <aggregate-warnings value="5"/>
    </report>

</configuration>
-->

<edges version="1.6" xmlns:xsi="http://www.w3.org/2001/XMLSchema-instance" xsi:noNamespaceSchemaLocation="http://sumo.dlr.de/xsd/edges_file.xsd">
    <edge id="-366913701#10" from="5077600694" to="6568909595" priority="4" type="highway.unclassified" numLanes="1" speed="8.33" shape="915.93,952.21 934.60,934.54 951.69,886.85 953.00,864.75" disallow="tram rail_urban rail rail_electric rail_fast ship"/>
    <edge id="-366913701#11" from="668672700" to="5077600694" priority="4" type="highway.unclassified" numLanes="1" speed="8.33" shape="788.03,1012.18 896.63,970.44 915.93,952.21" disallow="tram rail_urban rail rail_electric rail_fast ship"/>
    <edge id="-366913701#12" from="6583550562" to="668672700" priority="4" type="highway.unclassified" numLanes="1" speed="8.33" disallow="tram rail_urban rail rail_electric rail_fast ship"/>
    <edge id="-366913701#13" from="245674992" to="6583550562" priority="4" type="highway.unclassified" numLanes="1" speed="8.33" shape="453.81,1149.41 624.93,1079.15 698.39,1049.58" disallow="tram rail_urban rail rail_electric rail_fast ship"/>
    <edge id="-366913701#14" from="668672574" to="245674992" priority="4" type="highway.unclassified" numLanes="1" speed="8.33" disallow="tram rail_urban rail rail_electric rail_fast ship"/>
    <edge id="-366913701#15" from="6571330023" to="668672574" priority="4" type="highway.unclassified" numLanes="1" speed="8.33" disallow="tram rail_urban rail rail_electric rail_fast ship"/>
    <edge id="-366913701#16" from="5280437313" to="6571330023" priority="4" type="highway.unclassified" numLanes="1" speed="8.33" disallow="tram rail_urban rail rail_electric rail_fast ship"/>
    <edge id="-366913701#17" from="5280437314" to="5280437313" priority="4" type="highway.unclassified" numLanes="1" speed="8.33" disallow="tram rail_urban rail rail_electric rail_fast ship"/>
    <edge id="-366913701#18" from="4348259324" to="5280437314" priority="4" type="highway.unclassified" numLanes="1" speed="8.33" shape="100.68,1269.52 135.73,1259.37 208.85,1239.29" disallow="tram rail_urban rail rail_electric rail_fast ship"/>
    <edge id="-366913701#19" from="4348259319" to="4348259324" priority="4" type="highway.unclassified" numLanes="1" speed="8.33" shape="0.00,1293.82 48.27,1283.38 80.72,1275.38 100.68,1269.52" disallow="tram rail_urban rail rail_electric rail_fast ship"/>
    <edge id="-366913701#2" from="5879215650" to="5879215645" priority="4" type="highway.unclassified" numLanes="1" speed="8.33" disallow="tram rail_urban rail rail_electric rail_fast ship"/>
    <edge id="-366913701#3" from="667357311" to="5879215650" priority="4" type="highway.unclassified" numLanes="1" speed="8.33" shape="1022.59,281.34 1033.32,249.93 1039.06,234.86" disallow="tram rail_urban rail rail_electric rail_fast ship"/>
    <edge id="-366913701#4" from="5879215643" to="667357311" priority="4" type="highway.unclassified" numLanes="1" speed="8.33" shape="965.32,485.94 964.70,438.58 981.47,372.96 1022.59,281.34" disallow="tram rail_urban rail rail_electric rail_fast ship"/>
    <edge id="-366913701#5" from="668699249" to="5879215643" priority="4" type="highway.unclassified" numLanes="1" speed="8.33" disallow="tram rail_urban rail rail_electric rail_fast ship"/>
    <edge id="-366913701#6" from="667357325" to="668699249" priority="4" type="highway.unclassified" numLanes="1" speed="8.33" disallow="tram rail_urban rail rail_electric rail_fast ship"/>
    <edge id="-366913701#7" from="6568909594" to="667357325" priority="4" type="highway.unclassified" numLanes="1" speed="8.33" disallow="tram rail_urban rail rail_electric rail_fast ship"/>
    <edge id="-366913701#8" from="3215340463" to="6568909594" priority="4" type="highway.unclassified" numLanes="1" speed="8.33" disallow="tram rail_urban rail rail_electric rail_fast ship"/>
    <edge id="-366913701#9" from="6568909595" to="3215340463" priority="4" type="highway.unclassified" numLanes="1" speed="8.33" disallow="tram rail_urban rail rail_electric rail_fast ship"/>
    <edge id="-39093477#0" from="5366445084" to="668672700" priority="4" type="highway.unclassified" numLanes="1" speed="13.89" disallow="tram rail_urban rail rail_electric rail_fast ship"/>
    <edge id="-39093477#1" from="5366445083" to="5366445084" priority="4" type="highway.unclassified" numLanes="1" speed="13.89" disallow="tram rail_urban rail rail_electric rail_fast ship"/>
    <edge id="-39093477#10" from="cluster_4348259335_7265460758" to="4348259333" priority="4" type="highway.unclassified" numLanes="1" speed="13.89" shape="1251.31,1420.81 1240.11,1450.49 1221.14,1475.62" disallow="tram rail_urban rail rail_electric rail_fast ship"/>
    <edge id="-39093477#12" from="667357419" to="cluster_4348259335_7265460758" priority="4" type="highway.unclassified" numLanes="1" speed="13.89" shape="1254.00,1372.76 1253.13,1409.97" disallow="tram rail_urban rail rail_electric rail_fast ship"/>
    <edge id="-39093477#13" from="667357412" to="667357419" priority="4" type="highway.unclassified" numLanes="1" speed="13.89" disallow="tram rail_urban rail rail_electric rail_fast ship"/>
    <edge id="-39093477#2" from="5366445082" to="5366445083" priority="4" type="highway.unclassified" numLanes="1" speed="13.89" disallow="tram rail_urban rail rail_electric rail_fast ship"/>
    <edge id="-39093477#3" from="668672704" to="5366445082" priority="4" type="highway.unclassified" numLanes="1" speed="13.89" disallow="tram rail_urban rail rail_electric rail_fast ship"/>
    <edge id="-39093477#4" from="6573701524" to="668672704" priority="4" type="highway.unclassified" numLanes="1" speed="13.89" disallow="tram rail_urban rail rail_electric rail_fast ship"/>
    <edge id="-39093477#5" from="668612331" to="6573701524" priority="4" type="highway.unclassified" numLanes="1" speed="13.89" disallow="tram rail_urban rail rail_electric rail_fast ship"/>
    <edge id="-39093477#6" from="667357421" to="668612331" priority="4" type="highway.unclassified" numLanes="1" speed="13.89" shape="990.65,1584.62 958.05,1534.33 952.34,1525.82" disallow="tram rail_urban rail rail_electric rail_fast ship"/>
    <edge id="-39093477#7" from="1990860600" to="667357421" priority="4" type="highway.unclassified" numLanes="1" speed="13.89" shape="1106.88,1570.64 1084.03,1585.66 1040.60,1602.86 1027.08,1605.54 1017.64,1604.30 1002.01,1598.12 990.65,1584.62" disallow="tram rail_urban rail rail_electric rail_fast ship"/>
    <edge id="-39093477#8" from="4348259325" to="1990860600" priority="4" type="highway.unclassified" numLanes="1" speed="13.89" shape="1170.75,1520.93 1129.93,1556.28 1106.88,1570.64" disallow="tram rail_urban rail rail_electric rail_fast ship"/>
    <edge id="-39093477#9" from="4348259333" to="4348259325" priority="4" type="highway.unclassified" numLanes="1" speed="13.89" shape="1221.14,1475.62 1194.77,1500.14 1170.75,1520.93" disallow="tram rail_urban rail rail_electric rail_fast ship"/>
    <edge id="-436993177#0" from="4348259331" to="4348259325" priority="1" type="highway.unclassified" numLanes="1" speed="5.56" shape="1139.28,1431.73 1140.80,1481.12 1157.09,1503.96 1170.75,1520.93" disallow="tram rail_urban rail rail_electric rail_fast ship"/>
    <edge id="-436993177#1" from="4348259327" to="4348259331" priority="1" type="highway.unclassified" numLanes="1" speed="5.56" disallow="tram rail_urban rail rail_electric rail_fast ship"/>
    <edge id="-436993178" from="4348259329" to="667357367" priority="1" type="highway.unclassified" numLanes="1" speed="5.56" disallow="tram rail_urban rail rail_electric rail_fast ship"/>
    <edge id="-436993182" from="4348259340" to="4348259341" priority="1" type="highway.unclassified" numLanes="1" speed="5.56" shape="1327.27,1327.23 1329.33,1363.62 1320.22,1387.90 1307.35,1407.22 1299.96,1412.56" disallow="tram rail_urban rail rail_electric rail_fast ship"/>
    <edge id="-436993183#0" from="6786321691" to="4348259341" priority="3" type="highway.residential" numLanes="1" speed="13.89" shape="1153.63,1767.33 1163.06,1765.39 1178.89,1767.45 1186.09,1767.49 1196.83,1762.77 1221.29,1761.18 1227.35,1759.99 1231.56,1757.98 1235.30,1752.18 1237.16,1740.82 1245.13,1721.10 1287.95,1689.49 1330.22,1673.81 1340.19,1666.27 1344.41,1659.34 1345.39,1652.04 1343.92,1641.47 1337.64,1609.30 1334.06,1572.29 1327.23,1516.51 1315.37,1458.90 1306.48,1431.97 1299.96,1412.56" disallow="tram rail_urban rail rail_electric rail_fast ship"/>
    <edge id="-436993744" from="4348265098" to="6786321691" priority="3" type="highway.residential" numLanes="1" speed="13.89" shape="904.68,1630.03 872.45,1653.12 863.74,1672.47 857.93,1693.56 860.06,1704.26 886.87,1730.42 928.62,1798.77 948.50,1832.48 971.44,1850.60 984.69,1868.96 992.12,1866.65 1005.12,1864.64 1011.72,1855.68 1026.26,1856.25 1036.32,1857.60 1050.06,1853.38 1058.34,1861.05 1069.84,1889.05 1078.26,1907.08 1086.58,1918.47 1108.16,1916.35 1116.29,1910.70 1115.70,1892.94 1120.97,1866.59 1126.50,1830.62 1134.89,1816.08 1140.60,1794.17 1147.92,1773.56 1153.63,1767.33" disallow="tram rail_urban rail rail_electric rail_fast ship"/>
    <edge id="-436993745" from="4348265101" to="4348265099" priority="1" type="highway.unclassified" numLanes="1" speed="5.56" shape="867.34,1505.41 899.24,1536.08 905.92,1540.08 916.23,1541.35 931.02,1538.37" disallow="tram rail_urban rail rail_electric rail_fast ship"/>
    <edge id="-436993746#0" from="4348265105" to="6573701505" priority="1" type="highway.unclassified" numLanes="1" speed="5.56" shape="781.23,1548.96 765.98,1551.30 730.46,1563.97 693.77,1596.33" disallow="tram rail_urban rail rail_electric rail_fast ship"/>
    <edge id="-436993746#1" from="4348265107" to="4348265105" priority="1" type="highway.unclassified" numLanes="1" speed="5.56" shape="792.18,1493.54 790.36,1509.23 781.23,1548.96" disallow="tram rail_urban rail rail_electric rail_fast ship"/>
    <edge id="-436993746#2" from="4348265101" to="4348265107" priority="1" type="highway.unclassified" numLanes="1" speed="5.56" disallow="tram rail_urban rail rail_electric rail_fast ship"/>
    <edge id="-436993747" from="4348265101" to="4348265105" priority="1" type="highway.unclassified" numLanes="1" speed="5.56" shape="867.34,1505.41 858.57,1524.26 864.17,1565.27 865.16,1578.30 861.35,1589.28 847.91,1598.57 823.37,1599.98 804.06,1589.82 790.68,1568.67 781.23,1548.96" disallow="tram rail_urban rail rail_electric rail_fast ship"/>
    <edge id="-439272703" from="4369058864" to="5882320075" priority="1" type="highway.unclassified" numLanes="1" speed="5.56" shape="1121.57,1165.46 1121.05,1225.08 1123.69,1233.20 1127.57,1239.18 1145.90,1249.62" disallow="tram rail_urban rail rail_electric rail_fast ship"/>
    <edge id="-52511308" from="668685375" to="667357385" priority="1" type="highway.unclassified" numLanes="1" speed="5.56" disallow="tram rail_urban rail rail_electric rail_fast ship"/>
    <edge id="-52511312" from="667357311" to="667357310" priority="3" type="highway.residential" numLanes="1" speed="13.89" disallow="tram rail_urban rail rail_electric rail_fast ship"/>
    <edge id="-52511313#1" from="667357383" to="cluster_5879215623_5879215625" priority="3" type="highway.residential" numLanes="1" speed="13.89" shape="1349.73,626.60 1354.72,521.28" disallow="tram rail_urban rail rail_electric rail_fast ship"/>
    <edge id="-52511313#2" from="668685380" to="667357383" priority="3" type="highway.residential" numLanes="1" speed="13.89" disallow="tram rail_urban rail rail_electric rail_fast ship"/>
    <edge id="-52511313#3" from="667357392" to="668685380" priority="3" type="highway.residential" numLanes="1" speed="13.89" disallow="tram rail_urban rail rail_electric rail_fast ship"/>
    <edge id="-52511313#4" from="6576461331" to="667357392" priority="3" type="highway.residential" numLanes="1" speed="13.89" shape="1270.68,894.23 1324.88,896.21 1332.94,897.07" disallow="tram rail_urban rail rail_electric rail_fast ship"/>
    <edge id="-52511313#5" from="667357407" to="6576461331" priority="3" type="highway.residential" numLanes="1" speed="13.89" shape="1241.28,1010.24 1244.43,897.23 1250.05,893.46 1270.68,894.23" disallow="tram rail_urban rail rail_electric rail_fast ship"/>
    <edge id="-52511314#0" from="cluster_668620092_7147944044_7147944046" to="5366445083" priority="4" type="highway.unclassified" numLanes="1" speed="5.56" shape="975.09,1168.83 850.41,1171.61" disallow="tram rail_urban rail rail_electric rail_fast ship"/>
    <edge id="-52511314#3" from="4369058864" to="cluster_668620092_7147944044_7147944046" priority="4" type="highway.unclassified" numLanes="1" speed="5.56" shape="1121.57,1165.46 980.74,1168.65" disallow="tram rail_urban rail rail_electric rail_fast ship"/>
    <edge id="-52511314#4" from="667357409" to="4369058864" priority="4" type="highway.unclassified" numLanes="1" speed="5.56" shape="1290.81,1161.64 1236.68,1162.86 1178.48,1164.18 1121.57,1165.46" disallow="tram rail_urban rail rail_electric rail_fast ship"/>
    <edge id="-52511314#5" from="667357415" to="667357409" priority="4" type="highway.unclassified" numLanes="1" speed="5.56" disallow="tram rail_urban rail rail_electric rail_fast ship"/>
    <edge id="-52511317#0" from="667362347" to="667357387" priority="1" type="highway.unclassified" numLanes="1" speed="5.56" shape="1163.24,677.09 1180.47,676.82 1193.46,668.82 1243.03,625.19" disallow="tram rail_urban rail rail_electric rail_fast ship"/>
    <edge id="-52511317#1" from="667357382" to="667362347" priority="1" type="highway.unclassified" numLanes="1" speed="5.56" shape="1076.69,626.00 1128.86,669.67 1141.04,675.63 1163.24,677.09" disallow="tram rail_urban rail rail_electric rail_fast ship"/>
    <edge id="-52511319#0" from="4348259327" to="667357419" priority="1" type="highway.unclassified" numLanes="1" speed="5.56" disallow="tram rail_urban rail rail_electric rail_fast ship"/>
    <edge id="-52511319#1" from="667357367" to="4348259327" priority="1" type="highway.unclassified" numLanes="1" speed="5.56" shape="976.63,1330.28 1004.23,1349.81 1030.91,1365.47 1141.91,1365.96" disallow="tram rail_urban rail rail_electric rail_fast ship"/>
    <edge id="-52511319#2" from="5366445082" to="667357367" priority="1" type="highway.unclassified" numLanes="1" speed="5.56" disallow="tram rail_urban rail rail_electric rail_fast ship"/>
    <edge id="-52511326#0" from="667357361" to="668672699" priority="3" type="highway.residential" numLanes="1" speed="13.89" disallow="tram rail_urban rail rail_electric rail_fast ship"/>
    <edge id="-52511326#1" from="4348259298" to="667357361" priority="3" type="highway.residential" numLanes="1" speed="13.89" disallow="tram rail_urban rail rail_electric rail_fast ship"/>
    <edge id="-52511330" from="cluster_668620092_7147944044_7147944046" to="667357367" priority="1" type="highway.unclassified" numLanes="1" speed="5.56" shape="976.79,1168.75 976.63,1330.28" disallow="tram rail_urban rail rail_electric rail_fast ship"/>
    <edge id="-52511339#0" from="667357405" to="667357407" priority="3" type="highway.residential" numLanes="1" speed="13.89" shape="1289.49,1039.10 1277.94,1032.01 1246.28,1027.33 1241.69,1021.22 1241.28,1010.24" disallow="tram rail_urban rail rail_electric rail_fast ship"/>
    <edge id="-52511339#1" from="2055461155" to="667357405" priority="3" type="highway.residential" numLanes="1" speed="13.89" shape="1290.40,1095.80 1290.06,1053.19 1289.49,1039.10" disallow="tram rail_urban rail rail_electric rail_fast ship"/>
    <edge id="-52511339#2" from="667357409" to="2055461155" priority="3" type="highway.residential" numLanes="1" speed="13.89" disallow="tram rail_urban rail rail_electric rail_fast ship"/>
    <edge id="-52656539#0" from="4348265099" to="668612331" priority="3" type="highway.residential" numLanes="1" speed="13.89" shape="931.02,1538.37 937.38,1532.89 952.34,1525.82" disallow="tram rail_urban rail rail_electric rail_fast ship"/>
    <edge id="-52656539#1" from="4348265098" to="4348265099" priority="3" type="highway.residential" numLanes="1" speed="13.89" shape="904.68,1630.03 927.08,1545.22 931.02,1538.37" disallow="tram rail_urban rail rail_electric rail_fast ship"/>
    <edge id="-52656692#0" from="667357401" to="668685380" priority="3" type="highway.residential" numLanes="1" speed="13.89" shape="1394.70,902.15 1412.09,772.20 1412.63,680.06 1347.89,677.58" disallow="tram rail_urban rail rail_electric rail_fast ship"/>
    <edge id="-52656692#1" from="667357415" to="667357401" priority="3" type="highway.residential" numLanes="1" speed="13.89" shape="1373.24,1159.77 1380.20,1037.24 1390.98,936.61 1394.70,902.15" disallow="tram rail_urban rail rail_electric rail_fast ship"/>
    <edge id="-52656694" from="667357409" to="667357412" priority="3" type="highway.residential" numLanes="1" speed="13.89" shape="1290.81,1161.64 1269.72,1182.92 1263.19,1190.85 1256.24,1199.91 1254.41,1211.86 1255.16,1232.73" disallow="tram rail_urban rail rail_electric rail_fast ship"/>
    <edge id="-52663744#0" from="667357309" to="668660548" priority="3" type="highway.residential" numLanes="1" speed="13.89" disallow="tram rail_urban rail rail_electric rail_fast ship"/>
    <edge id="-52663744#1" from="667357310" to="667357309" priority="3" type="highway.residential" numLanes="1" speed="13.89" disallow="tram rail_urban rail rail_electric rail_fast ship"/>
    <edge id="-52663744#2" from="6495983054" to="667357310" priority="3" type="highway.residential" numLanes="1" speed="13.89" disallow="tram rail_urban rail rail_electric rail_fast ship"/>
    <edge id="-52663744#3" from="667357317" to="6495983054" priority="3" type="highway.residential" numLanes="1" speed="13.89" shape="888.45,507.10 896.20,440.11 911.68,394.54" disallow="tram rail_urban rail rail_electric rail_fast ship"/>
    <edge id="-52663745#0" from="667357368" to="5879215641" priority="1" type="highway.unclassified" numLanes="1" speed="5.56" disallow="tram rail_urban rail rail_electric rail_fast ship"/>
    <edge id="-52663745#1" from="5366445105" to="667357368" priority="1" type="highway.unclassified" numLanes="1" speed="5.56" disallow="tram rail_urban rail rail_electric rail_fast ship"/>
    <edge id="-52664437#0" from="667357317" to="668699249" priority="4" type="highway.unclassified" numLanes="1" speed="13.89" disallow="tram rail_urban rail rail_electric rail_fast ship"/>
    <edge id="-52664437#1" from="6568909609" to="667357317" priority="4" type="highway.unclassified" numLanes="1" speed="13.89" shape="850.53,534.97 859.65,530.71 867.67,527.18 880.59,518.37 888.45,507.10" disallow="tram rail_urban rail rail_electric rail_fast ship"/>
    <edge id="-52664437#2" from="667357318" to="6568909609" priority="4" type="highway.unclassified" numLanes="1" speed="13.89" shape="790.03,538.64 831.49,536.60 850.53,534.97" disallow="tram rail_urban rail rail_electric rail_fast ship"/>
    <edge id="-52664440#0" from="668699193" to="668699242" priority="1" type="highway.unclassified" numLanes="1" speed="5.56" shape="385.19,91.41 504.08,100.03 535.78,106.98" disallow="tram rail_urban rail rail_electric rail_fast ship"/>
    <edge id="-52664441#0" from="6627410442" to="668699237" priority="1" type="highway.unclassified" numLanes="1" speed="5.56" shape="858.47,166.98 827.00,167.85 748.77,163.18" disallow="tram rail_urban rail rail_electric rail_fast ship"/>
    <edge id="-52664441#1" from="667357309" to="6627410442" priority="1" type="highway.unclassified" numLanes="1" speed="5.56" shape="963.84,247.21 942.01,188.94 933.88,169.53 928.15,162.31 919.33,157.07 905.64,157.10 880.01,166.39 858.47,166.98" disallow="tram rail_urban rail rail_electric rail_fast ship"/>
    <edge id="-556314738#0" from="5584937650" to="668672704" priority="3" type="highway.residential" numLanes="1" speed="13.89" disallow="tram rail_urban rail rail_electric rail_fast ship"/>
    <edge id="-556314738#1" from="5366445085" to="5584937650" priority="3" type="highway.residential" numLanes="1" speed="13.89" disallow="tram rail_urban rail rail_electric rail_fast ship"/>
    <edge id="-556314738#2" from="5366445092" to="5366445085" priority="3" type="highway.residential" numLanes="1" speed="13.89" disallow="tram rail_urban rail rail_electric rail_fast ship"/>
    <edge id="-556314738#3" from="668672699" to="5366445092" priority="3" type="highway.residential" numLanes="1" speed="13.89" shape="479.40,1361.17 572.62,1347.27 671.66,1342.89" disallow="tram rail_urban rail rail_electric rail_fast ship"/>
    <edge id="-556314750#0" from="5366445105" to="667357325" priority="3" type="highway.residential" numLanes="1" speed="13.89" disallow="tram rail_urban rail rail_electric rail_fast ship"/>
    <edge id="-556314750#1" from="667357382" to="5366445105" priority="3" type="highway.residential" numLanes="1" speed="13.89" disallow="tram rail_urban rail rail_electric rail_fast ship"/>
    <edge id="-556314750#2" from="667357385" to="667357382" priority="3" type="highway.residential" numLanes="1" speed="13.89" disallow="tram rail_urban rail rail_electric rail_fast ship"/>
    <edge id="-556314750#3" from="667357387" to="667357385" priority="3" type="highway.residential" numLanes="1" speed="13.89" disallow="tram rail_urban rail rail_electric rail_fast ship"/>
    <edge id="-556314750#4" from="667357383" to="667357387" priority="3" type="highway.residential" numLanes="1" speed="13.89" disallow="tram rail_urban rail rail_electric rail_fast ship"/>
    <edge id="-568771388#0" from="667357330" to="245674992" priority="4" type="highway.unclassified" numLanes="1" speed="13.89" shape="626.33,838.02 633.83,867.70 632.22,881.64 518.31,980.26 467.22,1029.26 450.71,1056.85 453.81,1149.41" disallow="tram rail_urban rail rail_electric rail_fast ship"/>
    <edge id="-568771388#1" from="667357326" to="667357330" priority="4" type="highway.unclassified" numLanes="1" speed="13.89" shape="778.46,780.92 778.75,806.48 775.51,819.15 762.16,835.30 736.52,843.85 712.00,842.08 672.93,832.70 643.73,821.28 633.66,824.49 626.33,838.02" disallow="tram rail_urban rail rail_electric rail_fast ship"/>
    <edge id="-568771388#2" from="667357318" to="667357326" priority="4" type="highway.unclassified" numLanes="1" speed="13.89" shape="790.03,538.64 790.38,543.71 795.66,621.68 800.96,628.36 813.15,637.45 817.76,645.56 814.95,663.56 808.51,677.68 803.01,711.44 798.38,719.73 788.94,722.93 785.79,728.26 784.17,736.19 782.04,748.27 779.42,764.38 778.46,780.92" disallow="tram rail_urban rail rail_electric rail_fast ship"/>
    <edge id="-622415774#0" from="5879215642" to="5879215643" priority="1" type="highway.unclassified" numLanes="1" speed="5.56" disallow="tram rail_urban rail rail_electric rail_fast ship"/>
    <edge id="-622415774#1" from="667357368" to="5879215642" priority="1" type="highway.unclassified" numLanes="1" speed="5.56" disallow="tram rail_urban rail rail_electric rail_fast ship"/>
    <edge id="-622415774#2" from="668685375" to="667357368" priority="1" type="highway.unclassified" numLanes="1" speed="5.56" disallow="tram rail_urban rail rail_electric rail_fast ship"/>
    <edge id="-622415774#3" from="5879215634" to="668685375" priority="1" type="highway.unclassified" numLanes="1" speed="5.56" shape="1302.27,496.79 1289.23,506.36 1264.98,511.41 1250.55,509.33 1224.58,503.92 1214.10,499.58" disallow="tram rail_urban rail rail_electric rail_fast ship"/>
    <edge id="-622415774#4" from="cluster_5879215623_5879215625" to="5879215634" priority="1" type="highway.unclassified" numLanes="1" speed="5.56" shape="1350.30,508.08 1323.79,492.77 1302.27,496.79" disallow="tram rail_urban rail rail_electric rail_fast ship"/>
    <edge id="-622415784" from="5879215642" to="5879215644" priority="1" type="highway.unclassified" numLanes="1" speed="5.56" disallow="tram rail_urban rail rail_electric rail_fast ship"/>
    <edge id="-622415786#0" from="5879215641" to="5879215634" priority="1" type="highway.unclassified" numLanes="1" speed="5.56" shape="1142.08,281.14 1149.59,304.03 1165.03,320.40 1196.30,338.84 1234.82,382.55 1268.90,395.25 1283.19,414.53 1289.83,433.39 1287.64,447.16 1288.08,460.62 1290.42,467.89 1302.27,496.79" disallow="tram rail_urban rail rail_electric rail_fast ship"/>
    <edge id="-622415786#1" from="5879215644" to="5879215641" priority="1" type="highway.unclassified" numLanes="1" speed="5.56" shape="1105.22,244.99 1118.23,254.45 1138.95,264.30 1142.70,270.44 1143.03,274.36 1142.08,281.14" disallow="tram rail_urban rail rail_electric rail_fast ship"/>
    <edge id="-686607369" from="6435688923" to="6435688924" priority="3" type="highway.residential" numLanes="1" speed="13.89" disallow="tram rail_urban rail rail_electric rail_fast ship"/>
    <edge id="-692042225" from="6495983054" to="6495983060" priority="3" type="highway.residential" numLanes="1" speed="13.89" shape="911.68,394.54 900.26,391.74 890.91,389.32 871.99,388.98 845.53,394.35 828.01,393.16 819.73,385.40" disallow="tram rail_urban rail rail_electric rail_fast ship"/>
    <edge id="-699526247" from="6568909593" to="6568909594" priority="1" type="highway.unclassified" numLanes="1" speed="5.56" disallow="tram rail_urban rail rail_electric rail_fast ship"/>
    <edge id="-699526248#0" from="6568909593" to="6568909609" priority="1" type="highway.unclassified" numLanes="1" speed="5.56" shape="917.24,710.01 920.36,632.79 913.47,623.34 904.40,620.64 884.68,623.69 869.59,624.99 861.95,623.12 858.10,620.07 856.06,614.21 850.53,534.97" disallow="tram rail_urban rail rail_electric rail_fast ship"/>
    <edge id="-699526248#1" from="6573854574" to="6568909593" priority="1" type="highway.unclassified" numLanes="1" speed="5.56" disallow="tram rail_urban rail rail_electric rail_fast ship"/>
    <edge id="-699526248#2" from="6568909595" to="6573854574" priority="1" type="highway.unclassified" numLanes="1" speed="5.56" shape="953.00,864.75 937.15,857.63 920.14,852.22 908.17,841.70 915.89,727.90" disallow="tram rail_urban rail rail_electric rail_fast ship"/>
    <edge id="-699796291#0" from="6571330022" to="6571330023" priority="1" type="highway.unclassified" numLanes="1" speed="5.56" disallow="tram rail_urban rail rail_electric rail_fast ship"/>
    <edge id="-699796291#1" from="6571330021" to="6571330022" priority="1" type="highway.unclassified" numLanes="1" speed="5.56" disallow="tram rail_urban rail rail_electric rail_fast ship"/>
    <edge id="-699851820" from="6572115060" to="667357421" priority="1" type="highway.unclassified" numLanes="1" speed="5.56" shape="978.08,1780.50 971.27,1753.37 962.32,1713.35 956.43,1668.53 955.55,1642.73 959.54,1623.04 975.34,1598.44 990.65,1584.62" disallow="tram rail_urban rail rail_electric rail_fast ship"/>
    <edge id="-700019123#0" from="6573701505" to="4348265107" priority="1" type="highway.unclassified" numLanes="1" speed="5.56" shape="693.77,1596.33 675.31,1586.46 670.71,1579.64 668.77,1571.10 664.67,1558.80 668.92,1547.81 685.06,1529.11 695.12,1520.57 700.59,1517.69 712.00,1516.02 737.58,1512.77 743.69,1510.03 756.25,1498.65 767.15,1489.55 788.64,1492.94 792.18,1493.54" disallow="tram rail_urban rail rail_electric rail_fast ship"/>
    <edge id="-700019123#1" from="6573701501" to="6573701505" priority="1" type="highway.unclassified" numLanes="1" speed="5.56" shape="760.81,1608.86 757.22,1615.49 747.96,1620.38 741.48,1621.02 729.01,1617.09 711.67,1606.22 693.77,1596.33" disallow="tram rail_urban rail rail_electric rail_fast ship"/>
    <edge id="-700019124" from="4348265101" to="6573701524" priority="1" type="highway.unclassified" numLanes="1" speed="5.56" shape="867.34,1505.41 872.23,1495.87 885.30,1480.13 892.59,1475.42 898.77,1472.54 934.18,1469.05" disallow="tram rail_urban rail rail_electric rail_fast ship"/>
    <edge id="-705414725" from="6627410440" to="6627410442" priority="1" type="highway.unclassified" numLanes="1" speed="5.56" disallow="tram rail_urban rail rail_electric rail_fast ship"/>
    <edge id="-723323003" from="4348259341" to="cluster_4348259335_7265460758" priority="3" type="highway.residential" numLanes="1" speed="13.89" shape="1299.96,1412.56 1272.44,1411.13 1253.13,1409.97" disallow="tram rail_urban rail rail_electric rail_fast ship"/>
    <edge id="-723323006#0" from="6495983060" to="667357318" priority="4" type="highway.unclassified" numLanes="1" speed="13.89" shape="819.73,385.40 812.53,454.94 790.03,538.64" disallow="tram rail_urban rail rail_electric rail_fast ship"/>
    <edge id="-723323006#1" from="668699237" to="6495983060" priority="4" type="highway.unclassified" numLanes="1" speed="13.89" shape="748.77,163.18 778.79,194.53 787.96,206.34 793.63,220.59 819.73,385.40" disallow="tram rail_urban rail rail_electric rail_fast ship"/>