<?xml version="1.0" encoding="UTF-8"?>

<!-- generated on Sunday 24 May 2020 10:17:06 AM IST by Eclipse SUMO netedit Version 1.6.0
<configuration xmlns:xsi="http://www.w3.org/2001/XMLSchema-instance" xsi:noNamespaceSchemaLocation="http://sumo.dlr.de/xsd/netconvertConfiguration.xsd">

    <input>
        <sumo-net-file value="iitb.net.xml"/>
    </input>

    <output>
        <output-file value="iitb.net.xml"/>
        <plain-output-prefix value=""/>
    </output>

    <processing>
        <geometry.min-radius.fix.railways value="false"/>
        <geometry.max-grade.fix value="false"/>
        <offset.disable-normalization value="true"/>
        <lefthand value="true"/>
    </processing>

    <junctions>
        <no-turnarounds value="true"/>
        <junctions.corner-detail value="5"/>
        <junctions.limit-turn-speed value="5.5"/>
        <rectangular-lane-cut value="false"/>
    </junctions>

    <pedestrian>
        <walkingareas value="false"/>
    </pedestrian>

    <report>
        <aggregate-warnings value="5"/>
    </report>

</configuration>
-->

<net version="1.6" junctionCornerDetail="5" lefthand="true" limitTurnSpeed="5.50" xmlns:xsi="http://www.w3.org/2001/XMLSchema-instance" xsi:noNamespaceSchemaLocation="http://sumo.dlr.de/xsd/net_file.xsd">

    <location netOffset="-280183.30,-2116466.30" convBoundary="0.00,0.00,992.77,979.11" origBoundary="72.910162,19.129531,72.919650,19.138369" projParameter="+proj=utm +zone=43 +ellps=WGS84 +datum=WGS84 +units=m +no_defs"/>

    <type id="highway.bridleway" priority="1" numLanes="1" speed="2.78" allow="pedestrian" oneway="1" width="2.00"/>
    <type id="highway.bus_guideway" priority="1" numLanes="1" speed="27.78" allow="bus" oneway="1"/>
    <type id="highway.cycleway" priority="1" numLanes="1" speed="8.33" allow="bicycle" oneway="0" width="1.00"/>
    <type id="highway.footway" priority="1" numLanes="1" speed="2.78" allow="pedestrian" oneway="1" width="2.00"/>
    <type id="highway.ford" priority="1" numLanes="1" speed="2.78" allow="army" oneway="0"/>
    <type id="highway.living_street" priority="2" numLanes="1" speed="2.78" disallow="tram rail_urban rail rail_electric rail_fast ship" oneway="0"/>
    <type id="highway.motorway" priority="14" numLanes="2" speed="39.44" allow="private emergency authority army vip passenger hov taxi bus coach delivery truck trailer motorcycle evehicle custom1 custom2" oneway="1"/>
    <type id="highway.motorway_link" priority="9" numLanes="1" speed="22.22" allow="private emergency authority army vip passenger hov taxi bus coach delivery truck trailer motorcycle evehicle custom1 custom2" oneway="1"/>
    <type id="highway.path" priority="1" numLanes="1" speed="2.78" allow="pedestrian bicycle" oneway="1" width="2.00"/>
    <type id="highway.pedestrian" priority="1" numLanes="1" speed="2.78" allow="pedestrian" oneway="1" width="2.00"/>
    <type id="highway.primary" priority="12" numLanes="2" speed="27.78" disallow="tram rail_urban rail rail_electric rail_fast ship" oneway="0"/>
    <type id="highway.primary_link" priority="7" numLanes="1" speed="22.22" disallow="tram rail_urban rail rail_electric rail_fast ship" oneway="0"/>
    <type id="highway.raceway" priority="15" numLanes="2" speed="83.33" allow="vip" oneway="0"/>
    <type id="highway.residential" priority="3" numLanes="1" speed="13.89" disallow="tram rail_urban rail rail_electric rail_fast ship" oneway="0"/>
    <type id="highway.secondary" priority="11" numLanes="1" speed="27.78" disallow="tram rail_urban rail rail_electric rail_fast ship" oneway="0"/>
    <type id="highway.secondary_link" priority="6" numLanes="1" speed="22.22" disallow="tram rail_urban rail rail_electric rail_fast ship" oneway="0"/>
    <type id="highway.service" priority="1" numLanes="1" speed="5.56" allow="pedestrian delivery bicycle" oneway="0"/>
    <type id="highway.stairs" priority="1" numLanes="1" speed="1.39" allow="pedestrian" oneway="1" width="2.00"/>
    <type id="highway.step" priority="1" numLanes="1" speed="1.39" allow="pedestrian" oneway="1" width="2.00"/>
    <type id="highway.steps" priority="1" numLanes="1" speed="1.39" allow="pedestrian" oneway="1" width="2.00"/>
    <type id="highway.tertiary" priority="10" numLanes="1" speed="22.22" disallow="tram rail_urban rail rail_electric rail_fast ship" oneway="0"/>
    <type id="highway.tertiary_link" priority="5" numLanes="1" speed="22.22" disallow="tram rail_urban rail rail_electric rail_fast ship" oneway="0"/>
    <type id="highway.track" priority="1" numLanes="1" speed="5.56" disallow="tram rail_urban rail rail_electric rail_fast ship" oneway="0"/>
    <type id="highway.trunk" priority="13" numLanes="2" speed="27.78" disallow="pedestrian bicycle tram rail_urban rail rail_electric rail_fast ship" oneway="0"/>
    <type id="highway.trunk_link" priority="8" numLanes="1" speed="22.22" disallow="pedestrian bicycle tram rail_urban rail rail_electric rail_fast ship" oneway="0"/>
    <type id="highway.unclassified" priority="4" numLanes="1" speed="13.89" disallow="tram rail_urban rail rail_electric rail_fast ship" oneway="0"/>
    <type id="highway.unsurfaced" priority="1" numLanes="1" speed="8.33" disallow="tram rail_urban rail rail_electric rail_fast ship" oneway="0"/>
    <type id="railway.highspeed" priority="21" numLanes="1" speed="69.44" allow="rail_fast" oneway="1"/>
    <type id="railway.light_rail" priority="19" numLanes="1" speed="27.78" allow="rail_urban" oneway="1"/>
    <type id="railway.preserved" priority="16" numLanes="1" speed="27.78" allow="rail" oneway="1"/>
    <type id="railway.rail" priority="20" numLanes="1" speed="44.44" allow="rail" oneway="1"/>
    <type id="railway.subway" priority="18" numLanes="1" speed="27.78" allow="rail_urban" oneway="1"/>
    <type id="railway.tram" priority="17" numLanes="1" speed="13.89" allow="tram" oneway="1"/>

    <edge id=":-22_0" function="internal">
        <lane id=":-22_0_0" index="0" disallow="tram rail_urban rail rail_electric rail_fast ship" speed="27.78" length="14.36" shape="910.32,44.74 910.00,59.10"/>
    </edge>
    <edge id=":-22_1" function="internal">
        <lane id=":-22_1_0" index="0" disallow="tram rail_urban rail rail_electric rail_fast ship" speed="8.03" length="14.19" shape="910.32,44.74 910.80,48.58 912.40,51.36 915.11,53.09 918.95,53.75"/>
    </edge>
    <edge id=":-22_2" function="internal">
        <lane id=":-22_2_0" index="0" disallow="tram rail_urban rail rail_electric rail_fast ship" speed="3.65" length="4.67" shape="910.32,44.74 911.10,45.95 911.89,46.37 912.70,45.98 913.52,44.80"/>
    </edge>
    <edge id=":-22_3" function="internal">
        <lane id=":-22_3_0" index="0" disallow="tram rail_urban rail rail_electric rail_fast ship" speed="6.55" length="9.07" shape="919.05,50.55 916.59,50.13 914.85,49.03 913.83,47.25 913.52,44.80"/>
    </edge>
    <edge id=":-22_4" function="internal">
        <lane id=":-22_4_0" index="0" disallow="tram rail_urban rail rail_electric rail_fast ship" speed="8.00" length="14.21" shape="919.05,50.55 915.18,50.98 912.38,52.55 910.65,55.26 910.00,59.10"/>
    </edge>
    <edge id=":-22_5" function="internal">
        <lane id=":-22_5_0" index="0" disallow="tram rail_urban rail rail_electric rail_fast ship" speed="3.65" length="4.67" shape="919.05,50.55 917.82,51.31 917.40,52.10 917.77,52.91 918.95,53.75"/>
    </edge>
    <edge id=":-22_6" function="internal">
        <lane id=":-22_6_0" index="0" disallow="tram rail_urban rail rail_electric rail_fast ship" speed="6.50" length="9.03" shape="913.20,59.18 913.61,56.74 914.71,55.02 916.49,54.02 918.95,53.75"/>
    </edge>
    <edge id=":-22_7" function="internal">
        <lane id=":-22_7_0" index="0" disallow="tram rail_urban rail rail_electric rail_fast ship" speed="27.78" length="14.39" shape="913.20,59.18 913.52,44.80"/>
    </edge>
    <edge id=":-22_8" function="internal">
        <lane id=":-22_8_0" index="0" disallow="tram rail_urban rail rail_electric rail_fast ship" speed="3.65" length="4.67" shape="913.20,59.18 912.43,57.96 911.64,57.54 910.83,57.92 910.00,59.10"/>
    </edge>
    <edge id=":-222_0" function="internal">
        <lane id=":-222_0_0" index="0" disallow="tram rail_urban rail rail_electric rail_fast ship" speed="7.55" length="10.32" shape="58.51,723.66 55.48,723.31 53.15,722.33 51.51,720.71 50.58,718.46"/>
    </edge>
    <edge id=":-222_1" function="internal">
        <lane id=":-222_1_0" index="0" disallow="tram rail_urban rail rail_electric rail_fast ship" speed="7.65" length="15.15" shape="58.51,723.66 54.25,724.24 51.52,726.05 50.33,729.10 50.67,733.38"/>
    </edge>
    <edge id=":-222_2" function="internal">
        <lane id=":-222_2_0" index="0" disallow="tram rail_urban rail rail_electric rail_fast ship" speed="3.65" length="4.67" shape="58.51,723.66 57.31,724.45 56.90,725.25 57.29,726.05 58.48,726.86"/>
    </edge>
    <edge id=":-222_3" function="internal">
        <lane id=":-222_3_0" index="0" disallow="tram rail_urban rail rail_electric rail_fast ship" speed="6.07" length="9.07" shape="53.79,732.68 53.58,730.11 54.30,728.29 55.93,727.21 58.48,726.86"/>
    </edge>
    <edge id=":-222_4" function="internal">
        <lane id=":-222_4_0" index="0" disallow="tram rail_urban rail rail_electric rail_fast ship" speed="27.78" length="14.57" shape="53.79,732.68 50.58,718.46"/>
    </edge>
    <edge id=":-222_5" function="internal">
        <lane id=":-222_5_0" index="0" disallow="tram rail_urban rail rail_electric rail_fast ship" speed="3.65" length="2.34" shape="53.79,732.68 52.74,731.69 51.87,731.47"/>
    </edge>
    <edge id=":-222_9" function="internal">
        <lane id=":-222_9_0" index="0" disallow="tram rail_urban rail rail_electric rail_fast ship" speed="3.65" length="2.34" shape="51.87,731.47 51.18,732.04 50.67,733.38"/>
    </edge>
    <edge id=":-222_6" function="internal">
        <lane id=":-222_6_0" index="0" disallow="tram rail_urban rail rail_electric rail_fast ship" speed="27.78" length="14.57" shape="47.46,719.17 50.67,733.38"/>
    </edge>
    <edge id=":-222_7" function="internal">
        <lane id=":-222_7_0" index="0" disallow="tram rail_urban rail rail_electric rail_fast ship" speed="8.90" length="5.60" shape="47.46,719.17 48.79,722.50 50.18,723.96"/>
    </edge>
    <edge id=":-222_8" function="internal">
        <lane id=":-222_8_0" index="0" disallow="tram rail_urban rail rail_electric rail_fast ship" speed="3.65" length="2.34" shape="47.46,719.17 48.51,720.16 49.38,720.38"/>
    </edge>
    <edge id=":-222_10" function="internal">
        <lane id=":-222_10_0" index="0" disallow="tram rail_urban rail rail_electric rail_fast ship" speed="8.90" length="9.05" shape="50.18,723.96 51.08,724.90 54.30,726.35 58.48,726.86"/>
    </edge>
    <edge id=":-222_11" function="internal">
        <lane id=":-222_11_0" index="0" disallow="tram rail_urban rail rail_electric rail_fast ship" speed="3.65" length="2.34" shape="49.38,720.38 50.07,719.81 50.58,718.46"/>
    </edge>
    <edge id=":-266_0" function="internal">
        <lane id=":-266_0_0" index="0" disallow="tram rail_urban rail rail_electric rail_fast ship" speed="6.47" length="9.03" shape="904.49,252.20 904.07,254.65 902.97,256.36 901.18,257.33 898.71,257.57"/>
    </edge>
    <edge id=":-266_1" function="internal">
        <lane id=":-266_1_0" index="0" disallow="tram rail_urban rail rail_electric rail_fast ship" speed="8.09" length="14.20" shape="904.49,252.20 904.92,256.09 906.47,258.93 909.12,260.74 912.88,261.52"/>
    </edge>
    <edge id=":-266_2" function="internal">
        <lane id=":-266_2_0" index="0" disallow="tram rail_urban rail rail_electric rail_fast ship" speed="3.65" length="4.67" shape="904.49,252.20 905.26,253.42 906.05,253.85 906.86,253.47 907.69,252.29"/>
    </edge>
    <edge id=":-266_3" function="internal">
        <lane id=":-266_3_0" index="0" disallow="tram rail_urban rail rail_electric rail_fast ship" speed="6.62" length="9.16" shape="913.07,258.32 910.66,257.82 908.96,256.65 907.97,254.81 907.69,252.29"/>
    </edge>
    <edge id=":-266_4" function="internal">
        <lane id=":-266_4_0" index="0" disallow="tram rail_urban rail rail_electric rail_fast ship" speed="27.78" length="14.38" shape="913.07,258.32 898.71,257.57"/>
    </edge>
    <edge id=":-266_5" function="internal">
        <lane id=":-266_5_0" index="0" disallow="tram rail_urban rail rail_electric rail_fast ship" speed="3.65" length="2.34" shape="913.07,258.32 911.83,259.05 911.38,259.82"/>
    </edge>
    <edge id=":-266_9" function="internal">
        <lane id=":-266_9_0" index="0" disallow="tram rail_urban rail rail_electric rail_fast ship" speed="3.65" length="2.34" shape="911.38,259.82 911.73,260.65 912.88,261.52"/>
    </edge>
    <edge id=":-266_6" function="internal">
        <lane id=":-266_6_0" index="0" disallow="tram rail_urban rail rail_electric rail_fast ship" speed="27.78" length="14.34" shape="898.57,260.77 912.88,261.52"/>
    </edge>
    <edge id=":-266_7" function="internal">
        <lane id=":-266_7_0" index="0" disallow="tram rail_urban rail rail_electric rail_fast ship" speed="7.97" length="5.86" shape="898.57,260.77 902.47,260.39 904.17,259.46"/>
    </edge>
    <edge id=":-266_8" function="internal">
        <lane id=":-266_8_0" index="0" disallow="tram rail_urban rail rail_electric rail_fast ship" speed="3.65" length="2.34" shape="898.57,260.77 899.80,260.03 900.24,259.24"/>
    </edge>
    <edge id=":-266_10" function="internal">
        <lane id=":-266_10_0" index="0" disallow="tram rail_urban rail rail_electric rail_fast ship" speed="7.97" length="8.40" shape="904.17,259.46 905.29,258.85 907.03,256.15 907.69,252.29"/>
    </edge>
    <edge id=":-266_11" function="internal">
        <lane id=":-266_11_0" index="0" disallow="tram rail_urban rail rail_electric rail_fast ship" speed="3.65" length="2.34" shape="900.24,259.24 899.88,258.43 898.71,257.57"/>
    </edge>
    <edge id=":-282_0" function="internal">
        <lane id=":-282_0_0" index="0" disallow="tram rail_urban rail rail_electric rail_fast ship" speed="27.78" length="14.44" shape="888.19,405.30 873.79,404.29"/>
    </edge>
    <edge id=":-282_1" function="internal">
        <lane id=":-282_1_0" index="0" disallow="tram rail_urban rail rail_electric rail_fast ship" speed="8.07" length="5.93" shape="888.19,405.30 884.34,405.57 882.49,406.51"/>
    </edge>
    <edge id=":-282_2" function="internal">
        <lane id=":-282_2_0" index="0" disallow="tram rail_urban rail rail_electric rail_fast ship" speed="3.65" length="2.34" shape="888.19,405.30 886.94,406.01 886.48,406.78"/>
    </edge>
    <edge id=":-282_9" function="internal">
        <lane id=":-282_9_0" index="0" disallow="tram rail_urban rail rail_electric rail_fast ship" speed="8.07" length="8.30" shape="882.49,406.51 881.47,407.02 879.59,409.66 878.69,413.48"/>
    </edge>
    <edge id=":-282_10" function="internal">
        <lane id=":-282_10_0" index="0" disallow="tram rail_urban rail rail_electric rail_fast ship" speed="3.65" length="2.34" shape="886.48,406.78 886.82,407.61 887.96,408.50"/>
    </edge>
    <edge id=":-282_3" function="internal">
        <lane id=":-282_3_0" index="0" disallow="tram rail_urban rail rail_electric rail_fast ship" speed="6.58" length="9.14" shape="881.87,413.77 882.45,411.31 883.66,409.61 885.49,408.67 887.96,408.50"/>
    </edge>
    <edge id=":-282_4" function="internal">
        <lane id=":-282_4_0" index="0" disallow="tram rail_urban rail rail_electric rail_fast ship" speed="7.96" length="14.29" shape="881.87,413.77 881.68,409.84 880.26,406.96 877.63,405.11 873.79,404.29"/>
    </edge>
    <edge id=":-282_5" function="internal">
        <lane id=":-282_5_0" index="0" disallow="tram rail_urban rail rail_electric rail_fast ship" speed="3.65" length="4.67" shape="881.87,413.77 881.19,412.50 880.43,412.03 879.59,412.35 878.69,413.48"/>
    </edge>
    <edge id=":-282_6" function="internal">
        <lane id=":-282_6_0" index="0" disallow="tram rail_urban rail rail_electric rail_fast ship" speed="6.45" length="9.03" shape="873.58,407.49 876.01,408.00 877.67,409.17 878.56,410.99 878.69,413.48"/>
    </edge>
    <edge id=":-282_7" function="internal">
        <lane id=":-282_7_0" index="0" disallow="tram rail_urban rail rail_electric rail_fast ship" speed="27.78" length="14.41" shape="873.58,407.49 887.96,408.50"/>
    </edge>
    <edge id=":-282_8" function="internal">
        <lane id=":-282_8_0" index="0" disallow="tram rail_urban rail rail_electric rail_fast ship" speed="3.65" length="2.34" shape="873.58,407.49 874.83,406.77 875.28,405.99"/>
    </edge>
    <edge id=":-282_11" function="internal">
        <lane id=":-282_11_0" index="0" disallow="tram rail_urban rail rail_electric rail_fast ship" speed="3.65" length="2.34" shape="875.28,405.99 874.93,405.17 873.79,404.29"/>
    </edge>
    <edge id=":1990860598_0" function="internal">
        <lane id=":1990860598_0_0" index="0" disallow="tram rail_urban rail rail_electric rail_fast ship" speed="3.65" length="4.67" shape="637.91,867.88 636.66,867.16 635.77,867.16 635.23,867.87 635.05,869.30"/>
    </edge>
    <edge id=":1990860600_0" function="internal">
        <lane id=":1990860600_0_0" index="0" disallow="tram rail_urban rail rail_electric rail_fast ship" speed="6.95" length="9.55" shape="690.30,940.46 688.04,941.42 685.90,941.43 683.86,940.48 681.92,938.58"/>
    </edge>
    <edge id=":1990860600_1" function="internal">
        <lane id=":1990860600_1_0" index="0" disallow="tram rail_urban rail rail_electric rail_fast ship" speed="27.78" length="14.39" shape="690.30,940.46 678.18,948.23"/>
    </edge>
    <edge id=":1990860600_2" function="internal">
        <lane id=":1990860600_2_0" index="0" disallow="tram rail_urban rail rail_electric rail_fast ship" speed="3.65" length="2.34" shape="690.30,940.46 689.70,941.78 689.78,942.67"/>
    </edge>
    <edge id=":1990860600_9" function="internal">
        <lane id=":1990860600_9_0" index="0" disallow="tram rail_urban rail rail_electric rail_fast ship" speed="3.65" length="2.34" shape="689.78,942.67 690.55,943.14 691.99,943.18"/>
    </edge>
    <edge id=":1990860600_3" function="internal">
        <lane id=":1990860600_3_0" index="0" disallow="tram rail_urban rail rail_electric rail_fast ship" speed="27.78" length="14.31" shape="679.94,950.90 691.99,943.18"/>
    </edge>
    <edge id=":1990860600_4" function="internal">
        <lane id=":1990860600_4_0" index="0" disallow="tram rail_urban rail rail_electric rail_fast ship" speed="7.85" length="5.83" shape="679.94,950.90 682.96,948.23 683.70,946.59"/>
    </edge>
    <edge id=":1990860600_5" function="internal">
        <lane id=":1990860600_5_0" index="0" disallow="tram rail_urban rail rail_electric rail_fast ship" speed="3.65" length="2.34" shape="679.94,950.90 680.50,949.58 680.39,948.69"/>
    </edge>
    <edge id=":1990860600_10" function="internal">
        <lane id=":1990860600_10_0" index="0" disallow="tram rail_urban rail rail_electric rail_fast ship" speed="7.85" length="8.70" shape="683.70,946.59 684.29,945.28 683.95,942.07 681.92,938.58"/>
    </edge>
    <edge id=":1990860600_11" function="internal">
        <lane id=":1990860600_11_0" index="0" disallow="tram rail_urban rail rail_electric rail_fast ship" speed="3.65" length="2.34" shape="680.39,948.69 679.62,948.24 678.18,948.23"/>
    </edge>
    <edge id=":1990860600_6" function="internal">
        <lane id=":1990860600_6_0" index="0" disallow="tram rail_urban rail rail_electric rail_fast ship" speed="6.32" length="9.04" shape="679.41,940.57 680.67,942.73 680.89,944.74 680.06,946.57 678.18,948.23"/>
    </edge>
    <edge id=":1990860600_7" function="internal">
        <lane id=":1990860600_7_0" index="0" disallow="tram rail_urban rail rail_electric rail_fast ship" speed="8.38" length="14.30" shape="679.41,940.57 682.28,943.35 685.33,944.72 688.56,944.66 691.99,943.18"/>
    </edge>
    <edge id=":1990860600_8" function="internal">
        <lane id=":1990860600_8_0" index="0" disallow="tram rail_urban rail rail_electric rail_fast ship" speed="3.65" length="4.67" shape="679.41,940.57 680.79,941.01 681.66,940.83 682.04,940.02 681.92,938.58"/>
    </edge>
    <edge id=":2055461156_0" function="internal">
        <lane id=":2055461156_0_0" index="0" disallow="tram rail_urban rail rail_electric rail_fast ship" speed="3.65" length="4.67" shape="601.35,456.39 601.87,457.74 602.56,458.30 603.43,458.09 604.47,457.09"/>
    </edge>
    <edge id=":3215340463_0" function="internal">
        <lane id=":3215340463_0_0" index="0" disallow="tram rail_urban rail rail_electric rail_fast ship" speed="27.78" length="14.40" shape="532.80,189.82 531.94,204.19"/>
    </edge>
    <edge id=":3215340463_1" function="internal">
        <lane id=":3215340463_1_0" index="0" disallow="tram rail_urban rail rail_electric rail_fast ship" speed="8.02" length="5.92" shape="532.80,189.82 533.12,193.68 534.06,195.49"/>
    </edge>
    <edge id=":3215340463_2" function="internal">
        <lane id=":3215340463_2_0" index="0" disallow="tram rail_urban rail rail_electric rail_fast ship" speed="3.65" length="2.34" shape="532.80,189.82 533.53,191.06 534.30,191.51"/>
    </edge>
    <edge id=":3215340463_9" function="internal">
        <lane id=":3215340463_9_0" index="0" disallow="tram rail_urban rail rail_electric rail_fast ship" speed="8.02" length="8.28" shape="534.06,195.49 534.61,196.53 537.26,198.35 541.07,199.15"/>
    </edge>
    <edge id=":3215340463_10" function="internal">
        <lane id=":3215340463_10_0" index="0" disallow="tram rail_urban rail rail_electric rail_fast ship" speed="3.65" length="2.34" shape="534.30,191.51 535.12,191.16 535.99,190.01"/>
    </edge>
    <edge id=":3215340463_3" function="internal">
        <lane id=":3215340463_3_0" index="0" disallow="tram rail_urban rail rail_electric rail_fast ship" speed="6.53" length="9.07" shape="541.28,195.96 538.84,195.45 537.15,194.29 536.20,192.47 535.99,190.01"/>
    </edge>
    <edge id=":3215340463_4" function="internal">
        <lane id=":3215340463_4_0" index="0" disallow="tram rail_urban rail rail_electric rail_fast ship" speed="7.99" length="14.22" shape="541.28,195.96 537.39,196.26 534.54,197.73 532.72,200.37 531.94,204.19"/>
    </edge>
    <edge id=":3215340463_5" function="internal">
        <lane id=":3215340463_5_0" index="0" disallow="tram rail_urban rail rail_electric rail_fast ship" speed="3.65" length="4.67" shape="541.28,195.96 540.03,196.68 539.58,197.45 539.93,198.28 541.07,199.15"/>
    </edge>
    <edge id=":3215340463_6" function="internal">
        <lane id=":3215340463_6_0" index="0" disallow="tram rail_urban rail rail_electric rail_fast ship" speed="6.49" length="9.03" shape="535.14,204.38 535.63,201.96 536.79,200.28 538.60,199.34 541.07,199.15"/>
    </edge>
    <edge id=":3215340463_7" function="internal">
        <lane id=":3215340463_7_0" index="0" disallow="tram rail_urban rail rail_electric rail_fast ship" speed="27.78" length="14.40" shape="535.14,204.38 535.99,190.01"/>
    </edge>
    <edge id=":3215340463_8" function="internal">
        <lane id=":3215340463_8_0" index="0" disallow="tram rail_urban rail rail_electric rail_fast ship" speed="3.65" length="2.34" shape="535.14,204.38 534.41,203.14 533.64,202.69"/>
    </edge>
    <edge id=":3215340463_11" function="internal">
        <lane id=":3215340463_11_0" index="0" disallow="tram rail_urban rail rail_electric rail_fast ship" speed="3.65" length="2.34" shape="533.64,202.69 532.81,203.04 531.94,204.19"/>
    </edge>
    <edge id=":3215340464_0" function="internal">
        <lane id=":3215340464_0_0" index="0" disallow="tram rail_urban rail rail_electric rail_fast ship" speed="6.48" length="9.03" shape="622.07,195.67 621.58,198.10 620.44,199.78 618.63,200.72 616.15,200.91"/>
    </edge>
    <edge id=":3215340464_1" function="internal">
        <lane id=":3215340464_1_0" index="0" disallow="tram rail_urban rail rail_electric rail_fast ship" speed="27.78" length="14.39" shape="622.07,195.67 621.34,210.04"/>
    </edge>
    <edge id=":3215340464_2" function="internal">
        <lane id=":3215340464_2_0" index="0" disallow="tram rail_urban rail rail_electric rail_fast ship" speed="3.65" length="2.34" shape="622.07,195.67 622.80,196.91 623.58,197.35"/>
    </edge>
    <edge id=":3215340464_9" function="internal">
        <lane id=":3215340464_9_0" index="0" disallow="tram rail_urban rail rail_electric rail_fast ship" speed="3.65" length="2.34" shape="623.58,197.35 624.40,197.00 625.26,195.84"/>
    </edge>
    <edge id=":3215340464_3" function="internal">
        <lane id=":3215340464_3_0" index="0" disallow="tram rail_urban rail rail_electric rail_fast ship" speed="27.78" length="14.36" shape="624.54,210.18 625.26,195.84"/>
    </edge>
    <edge id=":3215340464_4" function="internal">
        <lane id=":3215340464_4_0" index="0" disallow="tram rail_urban rail rail_electric rail_fast ship" speed="8.06" length="5.86" shape="624.54,210.18 624.17,206.34 623.22,204.58"/>
    </edge>
    <edge id=":3215340464_5" function="internal">
        <lane id=":3215340464_5_0" index="0" disallow="tram rail_urban rail rail_electric rail_fast ship" speed="3.65" length="2.34" shape="624.54,210.18 623.80,208.95 623.01,208.51"/>
    </edge>
    <edge id=":3215340464_10" function="internal">
        <lane id=":3215340464_10_0" index="0" disallow="tram rail_urban rail rail_electric rail_fast ship" speed="8.06" length="8.34" shape="623.22,204.58 622.64,203.52 619.97,201.70 616.15,200.91"/>
    </edge>
    <edge id=":3215340464_11" function="internal">
        <lane id=":3215340464_11_0" index="0" disallow="tram rail_urban rail rail_electric rail_fast ship" speed="3.65" length="2.34" shape="623.01,208.51 622.20,208.87 621.34,210.04"/>
    </edge>
    <edge id=":3215340464_6" function="internal">
        <lane id=":3215340464_6_0" index="0" disallow="tram rail_urban rail rail_electric rail_fast ship" speed="6.58" length="9.11" shape="615.94,204.10 618.40,204.61 620.12,205.77 621.10,207.58 621.34,210.04"/>
    </edge>
    <edge id=":3215340464_7" function="internal">
        <lane id=":3215340464_7_0" index="0" disallow="tram rail_urban rail rail_electric rail_fast ship" speed="7.98" length="14.24" shape="615.94,204.10 619.84,203.80 622.69,202.33 624.50,199.67 625.26,195.84"/>
    </edge>
    <edge id=":3215340464_8" function="internal">
        <lane id=":3215340464_8_0" index="0" disallow="tram rail_urban rail rail_electric rail_fast ship" speed="3.65" length="4.67" shape="615.94,204.10 617.19,203.38 617.65,202.61 617.30,201.78 616.15,200.91"/>
    </edge>
    <edge id=":4369058864_0" function="internal">
        <lane id=":4369058864_0_0" index="0" disallow="tram rail_urban rail rail_electric rail_fast ship" speed="5.56" length="14.40" shape="707.28,541.05 692.88,540.89"/>
    </edge>
    <edge id=":4369058864_1" function="internal">
        <lane id=":4369058864_1_0" index="0" disallow="tram rail_urban rail rail_electric rail_fast ship" speed="8.00" length="5.93" shape="707.28,541.05 703.42,541.56 701.66,542.59"/>
    </edge>
    <edge id=":4369058864_2" function="internal">
        <lane id=":4369058864_2_0" index="0" disallow="tram rail_urban rail rail_electric rail_fast ship" speed="3.65" length="2.34" shape="707.28,541.05 706.07,541.83 705.66,542.63"/>
    </edge>
    <edge id=":4369058864_9" function="internal">
        <lane id=":4369058864_9_0" index="0" disallow="tram rail_urban rail rail_electric rail_fast ship" speed="8.00" length="8.26" shape="701.66,542.59 700.65,543.18 698.98,545.91 698.39,549.76"/>
    </edge>
    <edge id=":4369058864_10" function="internal">
        <lane id=":4369058864_10_0" index="0" disallow="tram rail_urban rail rail_electric rail_fast ship" speed="3.65" length="2.34" shape="705.66,542.63 706.05,543.43 707.24,544.25"/>
    </edge>
    <edge id=":4369058864_3" function="internal">
        <lane id=":4369058864_3_0" index="0" disallow="tram rail_urban rail rail_electric rail_fast ship" speed="6.51" length="9.03" shape="701.59,549.79 701.96,547.34 703.03,545.60 704.79,544.57 707.24,544.25"/>
    </edge>
    <edge id=":4369058864_4" function="internal">
        <lane id=":4369058864_4_0" index="0" disallow="tram rail_urban rail rail_electric rail_fast ship" speed="8.00" length="14.19" shape="701.59,549.79 701.08,545.93 699.45,543.16 696.72,541.49 692.88,540.89"/>
    </edge>
    <edge id=":4369058864_5" function="internal">
        <lane id=":4369058864_5_0" index="0" disallow="tram rail_urban rail rail_electric rail_fast ship" speed="3.65" length="4.67" shape="701.59,549.79 700.80,548.58 700.00,548.17 699.20,548.56 698.39,549.76"/>
    </edge>
    <edge id=":4369058864_6" function="internal">
        <lane id=":4369058864_6_0" index="0" disallow="tram rail_urban rail rail_electric rail_fast ship" speed="6.51" length="9.03" shape="692.85,544.09 695.29,544.47 697.03,545.54 698.06,547.30 698.39,549.76"/>
    </edge>
    <edge id=":4369058864_7" function="internal">
        <lane id=":4369058864_7_0" index="0" disallow="tram rail_urban rail rail_electric rail_fast ship" speed="5.56" length="14.40" shape="692.85,544.09 707.24,544.25"/>
    </edge>
    <edge id=":4369058864_8" function="internal">
        <lane id=":4369058864_8_0" index="0" disallow="tram rail_urban rail rail_electric rail_fast ship" speed="3.65" length="2.34" shape="692.85,544.09 694.05,543.31 694.46,542.51"/>
    </edge>
    <edge id=":4369058864_11" function="internal">
        <lane id=":4369058864_11_0" index="0" disallow="tram rail_urban rail rail_electric rail_fast ship" speed="3.65" length="2.34" shape="694.46,542.51 694.07,541.71 692.88,540.89"/>
    </edge>
    <edge id=":5366445083_0" function="internal">
        <lane id=":5366445083_0_0" index="0" disallow="tram rail_urban rail rail_electric rail_fast ship" speed="7.94" length="10.75" shape="437.12,545.36 433.88,545.22 431.31,544.42 429.42,542.96 428.19,540.86"/>
    </edge>
    <edge id=":5366445083_1" function="internal">