<?xml version="1.0" encoding="UTF-8"?>

<!-- generated on Sun 03 Jan 2021 15:36:32 IST by Eclipse SUMO netedit Version 1.8.0
<configuration xmlns:xsi="http://www.w3.org/2001/XMLSchema-instance" xsi:noNamespaceSchemaLocation="http://sumo.dlr.de/xsd/netconvertConfiguration.xsd">

    <input>
        <sumo-net-file value="/home/sdeepakmallya/ros_ws/src/mrpp_sumo/graph_sumo/iitb_full.net.xml"/>
    </input>

    <output>
        <output-file value="/home/sdeepakmallya/ros_ws/src/mrpp_sumo/graph_sumo/iitb_full.net.xml"/>
    </output>

    <processing>
        <geometry.min-radius.fix.railways value="false"/>
        <geometry.max-grade.fix value="false"/>
        <offset.disable-normalization value="true"/>
        <lefthand value="false"/>
    </processing>

    <junctions>
        <no-turnarounds value="true"/>
        <junctions.corner-detail value="5"/>
        <junctions.limit-turn-speed value="5.5"/>
        <rectangular-lane-cut value="false"/>
    </junctions>

    <pedestrian>
        <walkingareas value="false"/>
    </pedestrian>

    <report>
        <aggregate-warnings value="5"/>
    </report>

</configuration>
-->

<net version="1.6" junctionCornerDetail="5" limitTurnSpeed="5.50" xmlns:xsi="http://www.w3.org/2001/XMLSchema-instance" xsi:noNamespaceSchemaLocation="http://sumo.dlr.de/xsd/net_file.xsd">

    <location netOffset="-279761.74,-2115841.11" convBoundary="0.00,0.00,1412.63,1918.47" origBoundary="72.819690,19.118093,72.938283,19.148846" projParameter="+proj=utm +zone=43 +ellps=WGS84 +datum=WGS84 +units=m +no_defs"/>

    <type id="highway.bridleway" priority="1" numLanes="1" speed="2.78" allow="pedestrian" oneway="1" width="2.00"/>
    <type id="highway.bus_guideway" priority="1" numLanes="1" speed="27.78" allow="bus" oneway="1"/>
    <type id="highway.cycleway" priority="1" numLanes="1" speed="8.33" allow="bicycle" oneway="1" width="1.00"/>
    <type id="highway.footway" priority="1" numLanes="1" speed="2.78" allow="pedestrian" oneway="1" width="2.00"/>
    <type id="highway.ford" priority="1" numLanes="1" speed="2.78" allow="army" oneway="1"/>
    <type id="highway.living_street" priority="2" numLanes="1" speed="2.78" disallow="tram rail_urban rail rail_electric rail_fast ship" oneway="1"/>
    <type id="highway.motorway" priority="14" numLanes="2" speed="39.44" allow="private emergency authority army vip passenger hov taxi bus coach delivery truck trailer motorcycle evehicle custom1 custom2" oneway="1"/>
    <type id="highway.motorway_link" priority="9" numLanes="1" speed="22.22" allow="private emergency authority army vip passenger hov taxi bus coach delivery truck trailer motorcycle evehicle custom1 custom2" oneway="1"/>
    <type id="highway.path" priority="1" numLanes="1" speed="2.78" allow="pedestrian bicycle" oneway="1" width="2.00"/>
    <type id="highway.pedestrian" priority="1" numLanes="1" speed="2.78" allow="pedestrian" oneway="1" width="2.00"/>
    <type id="highway.primary" priority="12" numLanes="2" speed="27.78" disallow="tram rail_urban rail rail_electric rail_fast ship" oneway="1"/>
    <type id="highway.primary_link" priority="7" numLanes="1" speed="22.22" disallow="tram rail_urban rail rail_electric rail_fast ship" oneway="1"/>
    <type id="highway.raceway" priority="15" numLanes="2" speed="83.33" allow="vip" oneway="1"/>
    <type id="highway.residential" priority="3" numLanes="1" speed="13.89" disallow="tram rail_urban rail rail_electric rail_fast ship" oneway="1"/>
    <type id="highway.secondary" priority="11" numLanes="1" speed="27.78" disallow="tram rail_urban rail rail_electric rail_fast ship" oneway="1"/>
    <type id="highway.secondary_link" priority="6" numLanes="1" speed="22.22" disallow="tram rail_urban rail rail_electric rail_fast ship" oneway="1"/>
    <type id="highway.service" priority="1" numLanes="1" speed="5.56" allow="pedestrian delivery bicycle" oneway="1"/>
    <type id="highway.stairs" priority="1" numLanes="1" speed="1.39" allow="pedestrian" oneway="1" width="2.00"/>
    <type id="highway.step" priority="1" numLanes="1" speed="1.39" allow="pedestrian" oneway="1" width="2.00"/>
    <type id="highway.steps" priority="1" numLanes="1" speed="1.39" allow="pedestrian" oneway="1" width="2.00"/>
    <type id="highway.tertiary" priority="10" numLanes="1" speed="22.22" disallow="tram rail_urban rail rail_electric rail_fast ship" oneway="1"/>
    <type id="highway.tertiary_link" priority="5" numLanes="1" speed="22.22" disallow="tram rail_urban rail rail_electric rail_fast ship" oneway="1"/>
    <type id="highway.track" priority="1" numLanes="1" speed="5.56" disallow="tram rail_urban rail rail_electric rail_fast ship" oneway="1"/>
    <type id="highway.trunk" priority="13" numLanes="2" speed="27.78" disallow="pedestrian bicycle tram rail_urban rail rail_electric rail_fast ship" oneway="1"/>
    <type id="highway.trunk_link" priority="8" numLanes="1" speed="22.22" disallow="pedestrian bicycle tram rail_urban rail rail_electric rail_fast ship" oneway="1"/>
    <type id="highway.unclassified" priority="4" numLanes="1" speed="13.89" disallow="tram rail_urban rail rail_electric rail_fast ship" oneway="1"/>
    <type id="highway.unsurfaced" priority="1" numLanes="1" speed="8.33" disallow="tram rail_urban rail rail_electric rail_fast ship" oneway="1"/>
    <type id="railway.highspeed" priority="21" numLanes="1" speed="69.44" allow="rail_fast" oneway="1"/>
    <type id="railway.light_rail" priority="19" numLanes="1" speed="27.78" allow="rail_urban" oneway="1"/>
    <type id="railway.preserved" priority="16" numLanes="1" speed="27.78" allow="rail" oneway="1"/>
    <type id="railway.rail" priority="20" numLanes="1" speed="44.44" allow="rail" oneway="1"/>
    <type id="railway.subway" priority="18" numLanes="1" speed="27.78" allow="rail_urban" oneway="1"/>
    <type id="railway.tram" priority="17" numLanes="1" speed="13.89" allow="tram" oneway="1"/>

    <edge id=":1990860600_0" function="internal">
        <lane id=":1990860600_0_0" index="0" disallow="tram rail_urban rail rail_electric rail_fast ship" speed="13.89" length="0.23" shape="1107.84,1571.93 1107.65,1572.05"/>
    </edge>
    <edge id=":1990860600_1" function="internal">
        <lane id=":1990860600_1_0" index="0" disallow="tram rail_urban rail rail_electric rail_fast ship" speed="3.65" length="2.34" shape="1107.84,1571.93 1106.40,1571.88 1105.64,1571.41"/>
    </edge>
    <edge id=":1990860600_4" function="internal">
        <lane id=":1990860600_4_0" index="0" disallow="tram rail_urban rail rail_electric rail_fast ship" speed="3.65" length="2.34" shape="1105.64,1571.41 1105.55,1570.52 1106.15,1569.21"/>
    </edge>
    <edge id=":1990860600_2" function="internal">
        <lane id=":1990860600_2_0" index="0" disallow="tram rail_urban rail rail_electric rail_fast ship" speed="13.89" length="0.31" shape="1105.89,1569.38 1106.15,1569.21"/>
    </edge>
    <edge id=":1990860600_3" function="internal">
        <lane id=":1990860600_3_0" index="0" disallow="tram rail_urban rail rail_electric rail_fast ship" speed="3.65" length="2.34" shape="1105.89,1569.38 1107.33,1569.39 1108.10,1569.84"/>
    </edge>
    <edge id=":1990860600_5" function="internal">
        <lane id=":1990860600_5_0" index="0" disallow="tram rail_urban rail rail_electric rail_fast ship" speed="3.65" length="2.34" shape="1108.10,1569.84 1108.21,1570.72 1107.65,1572.05"/>
    </edge>
    <edge id=":2055461155_0" function="internal">
        <lane id=":2055461155_0_0" index="0" disallow="tram rail_urban rail rail_electric rail_fast ship" speed="13.89" length="0.30" shape="1288.80,1095.96 1288.80,1095.66"/>
    </edge>
    <edge id=":2055461155_1" function="internal">
        <lane id=":2055461155_1_0" index="0" disallow="tram rail_urban rail rail_electric rail_fast ship" speed="3.65" length="2.34" shape="1288.80,1095.96 1289.59,1094.75 1290.39,1094.35"/>
    </edge>
    <edge id=":2055461155_4" function="internal">
        <lane id=":2055461155_4_0" index="0" disallow="tram rail_urban rail rail_electric rail_fast ship" speed="3.65" length="2.34" shape="1290.39,1094.35 1291.19,1094.74 1292.00,1095.94"/>
    </edge>
    <edge id=":2055461155_2" function="internal">
        <lane id=":2055461155_2_0" index="0" disallow="tram rail_urban rail rail_electric rail_fast ship" speed="13.89" length="0.30" shape="1292.00,1095.64 1292.00,1095.94"/>
    </edge>
    <edge id=":2055461155_3" function="internal">
        <lane id=":2055461155_3_0" index="0" disallow="tram rail_urban rail rail_electric rail_fast ship" speed="3.65" length="2.34" shape="1292.00,1095.64 1291.21,1096.84 1290.41,1097.25"/>
    </edge>
    <edge id=":2055461155_5" function="internal">
        <lane id=":2055461155_5_0" index="0" disallow="tram rail_urban rail rail_electric rail_fast ship" speed="3.65" length="2.34" shape="1290.41,1097.25 1289.61,1096.86 1288.80,1095.66"/>
    </edge>
    <edge id=":245674992_0" function="internal">
        <lane id=":245674992_0_0" index="0" disallow="tram rail_urban rail rail_electric rail_fast ship" speed="8.33" length="14.76" shape="462.38,1147.62 448.76,1153.32"/>
    </edge>
    <edge id=":245674992_1" function="internal">
        <lane id=":245674992_1_0" index="0" disallow="tram rail_urban rail rail_electric rail_fast ship" speed="7.52" length="15.77" shape="462.38,1147.62 457.94,1148.75 454.72,1148.00 452.71,1145.37 451.92,1140.86"/>
    </edge>
    <edge id=":245674992_2" function="internal">
        <lane id=":245674992_2_0" index="0" disallow="tram rail_urban rail rail_electric rail_fast ship" speed="3.65" length="4.67" shape="462.38,1147.62 460.96,1147.34 460.29,1146.75 460.36,1145.86 461.16,1144.66"/>
    </edge>
    <edge id=":245674992_3" function="internal">
        <lane id=":245674992_3_0" index="0" disallow="tram rail_urban rail rail_electric rail_fast ship" speed="5.87" length="9.11" shape="455.12,1140.76 455.58,1143.36 456.74,1144.88 458.60,1145.32 461.16,1144.66"/>
    </edge>
    <edge id=":245674992_4" function="internal">
        <lane id=":245674992_4_0" index="0" disallow="tram rail_urban rail rail_electric rail_fast ship" speed="9.62" length="15.02" shape="455.12,1140.76 454.85,1145.18 453.69,1148.74 451.66,1151.46 448.76,1153.32"/>
    </edge>
    <edge id=":245674992_5" function="internal">
        <lane id=":245674992_5_0" index="0" disallow="tram rail_urban rail rail_electric rail_fast ship" speed="3.65" length="4.67" shape="455.12,1140.76 454.36,1141.98 453.58,1142.41 452.76,1142.04 451.92,1140.86"/>
    </edge>
    <edge id=":245674992_6" function="internal">
        <lane id=":245674992_6_0" index="0" disallow="tram rail_urban rail rail_electric rail_fast ship" speed="8.37" length="11.17" shape="447.50,1150.38 449.53,1149.03 450.94,1147.00 451.74,1144.27 451.92,1140.86"/>
    </edge>
    <edge id=":245674992_7" function="internal">
        <lane id=":245674992_7_0" index="0" disallow="tram rail_urban rail rail_electric rail_fast ship" speed="8.33" length="14.82" shape="447.50,1150.38 461.16,1144.66"/>
    </edge>
    <edge id=":245674992_8" function="internal">
        <lane id=":245674992_8_0" index="0" disallow="tram rail_urban rail rail_electric rail_fast ship" speed="3.65" length="4.67" shape="447.50,1150.38 448.91,1150.64 449.60,1151.22 449.55,1152.11 448.76,1153.32"/>
    </edge>
    <edge id=":3215340463_0" function="internal">
        <lane id=":3215340463_0_0" index="0" disallow="tram rail_urban rail rail_electric rail_fast ship" speed="8.33" length="0.19" shape="957.13,822.31 957.12,822.50"/>
    </edge>
    <edge id=":3215340463_1" function="internal">
        <lane id=":3215340463_1_0" index="0" disallow="tram rail_urban rail rail_electric rail_fast ship" speed="3.65" length="4.67" shape="957.13,822.31 956.23,823.43 955.39,823.75 954.63,823.28 953.95,822.01"/>
    </edge>
    <edge id=":3215340463_2" function="internal">
        <lane id=":3215340463_2_0" index="0" disallow="tram rail_urban rail rail_electric rail_fast ship" speed="8.33" length="0.30" shape="953.93,822.31 953.95,822.01"/>
    </edge>
    <edge id=":3215340463_3" function="internal">
        <lane id=":3215340463_3_0" index="0" disallow="tram rail_urban rail rail_electric rail_fast ship" speed="3.65" length="4.67" shape="953.93,822.31 954.80,821.16 955.62,820.80 956.39,821.25 957.12,822.50"/>
    </edge>
    <edge id=":4348259295_0" function="internal">
        <lane id=":4348259295_0_0" index="0" disallow="tram rail_urban rail rail_electric rail_fast ship" speed="13.89" length="0.10" shape="446.86,1255.52 446.86,1255.52"/>
    </edge>
    <edge id=":4348259295_1" function="internal">
        <lane id=":4348259295_1_0" index="0" disallow="tram rail_urban rail rail_electric rail_fast ship" speed="3.65" length="2.34" shape="446.86,1255.52 447.30,1254.14 447.95,1253.53"/>
    </edge>
    <edge id=":4348259295_4" function="internal">
        <lane id=":4348259295_4_0" index="0" disallow="tram rail_urban rail rail_electric rail_fast ship" speed="3.65" length="2.34" shape="447.95,1253.53 448.83,1253.69 449.94,1254.62"/>
    </edge>
    <edge id=":4348259295_2" function="internal">
        <lane id=":4348259295_2_0" index="0" disallow="tram rail_urban rail rail_electric rail_fast ship" speed="13.89" length="0.10" shape="449.94,1254.62 449.94,1254.62"/>
    </edge>
    <edge id=":4348259295_3" function="internal">
        <lane id=":4348259295_3_0" index="0" disallow="tram rail_urban rail rail_electric rail_fast ship" speed="3.65" length="2.34" shape="449.94,1254.62 449.50,1256.00 448.85,1256.61"/>
    </edge>
    <edge id=":4348259295_5" function="internal">
        <lane id=":4348259295_5_0" index="0" disallow="tram rail_urban rail rail_electric rail_fast ship" speed="3.65" length="2.34" shape="448.85,1256.61 447.97,1256.45 446.86,1255.52"/>
    </edge>
    <edge id=":4348259298_0" function="internal">
        <lane id=":4348259298_0_0" index="0" disallow="tram rail_urban rail rail_electric rail_fast ship" speed="3.65" length="4.67" shape="492.17,1503.51 491.47,1504.77 490.71,1505.23 489.88,1504.90 488.99,1503.77"/>
    </edge>
    <edge id=":4348259319_0" function="internal">
        <lane id=":4348259319_0_0" index="0" disallow="tram rail_urban rail rail_electric rail_fast ship" speed="3.65" length="4.67" shape="0.34,1295.38 -1.00,1294.86 -1.56,1294.16 -1.34,1293.29 -0.34,1292.26"/>
    </edge>
    <edge id=":4348259324_0" function="internal">
        <lane id=":4348259324_0_0" index="0" disallow="tram rail_urban rail rail_electric rail_fast ship" speed="8.33" length="0.29" shape="101.27,1271.02 100.99,1271.10"/>
    </edge>
    <edge id=":4348259324_1" function="internal">
        <lane id=":4348259324_1_0" index="0" disallow="tram rail_urban rail rail_electric rail_fast ship" speed="3.65" length="2.34" shape="101.27,1271.02 99.89,1270.58 99.29,1269.92"/>
    </edge>
    <edge id=":4348259324_4" function="internal">
        <lane id=":4348259324_4_0" index="0" disallow="tram rail_urban rail rail_electric rail_fast ship" speed="3.65" length="2.34" shape="99.29,1269.92 99.45,1269.04 100.38,1267.94"/>
    </edge>
    <edge id=":4348259324_2" function="internal">
        <lane id=":4348259324_2_0" index="0" disallow="tram rail_urban rail rail_electric rail_fast ship" speed="8.33" length="0.31" shape="100.09,1268.03 100.38,1267.94"/>
    </edge>
    <edge id=":4348259324_3" function="internal">
        <lane id=":4348259324_3_0" index="0" disallow="tram rail_urban rail rail_electric rail_fast ship" speed="3.65" length="2.34" shape="100.09,1268.03 101.46,1268.46 102.07,1269.11"/>
    </edge>
    <edge id=":4348259324_5" function="internal">
        <lane id=":4348259324_5_0" index="0" disallow="tram rail_urban rail rail_electric rail_fast ship" speed="3.65" length="2.34" shape="102.07,1269.11 101.91,1269.99 100.99,1271.10"/>
    </edge>
    <edge id=":4348259325_0" function="internal">
        <lane id=":4348259325_0_0" index="0" disallow="tram rail_urban rail rail_electric rail_fast ship" speed="13.89" length="14.40" shape="1177.33,1517.35 1166.44,1526.78"/>
    </edge>
    <edge id=":4348259325_1" function="internal">
        <lane id=":4348259325_1_0" index="0" disallow="tram rail_urban rail rail_electric rail_fast ship" speed="7.94" length="5.93" shape="1177.33,1517.35 1174.01,1519.48 1172.05,1519.81"/>
    </edge>
    <edge id=":4348259325_2" function="internal">
        <lane id=":4348259325_2_0" index="0" disallow="tram rail_urban rail rail_electric rail_fast ship" speed="3.65" length="2.34" shape="1177.33,1517.35 1175.90,1517.53 1175.07,1517.19"/>
    </edge>
    <edge id=":4348259325_9" function="internal">
        <lane id=":4348259325_9_0" index="0" disallow="tram rail_urban rail rail_electric rail_fast ship" speed="7.94" length="8.40" shape="1172.05,1519.81 1170.83,1520.01 1167.80,1518.93 1164.92,1516.23"/>
    </edge>
    <edge id=":4348259325_10" function="internal">
        <lane id=":4348259325_10_0" index="0" disallow="tram rail_urban rail rail_electric rail_fast ship" speed="3.65" length="2.34" shape="1175.07,1517.19 1174.85,1516.32 1175.23,1514.93"/>
    </edge>
    <edge id=":4348259325_3" function="internal">
        <lane id=":4348259325_3_0" index="0" disallow="tram rail_urban rail rail_electric rail_fast ship" speed="6.43" length="9.03" shape="1167.41,1514.23 1169.23,1515.92 1171.14,1516.61 1173.14,1516.28 1175.23,1514.93"/>
    </edge>
    <edge id=":4348259325_4" function="internal">
        <lane id=":4348259325_4_0" index="0" disallow="tram rail_urban rail rail_electric rail_fast ship" speed="8.12" length="14.24" shape="1167.41,1514.23 1169.43,1517.60 1169.94,1520.82 1168.95,1523.88 1166.44,1526.78"/>
    </edge>
    <edge id=":4348259325_5" function="internal">
        <lane id=":4348259325_5_0" index="0" disallow="tram rail_urban rail rail_electric rail_fast ship" speed="3.65" length="4.67" shape="1167.41,1514.23 1167.54,1515.66 1167.17,1516.48 1166.29,1516.67 1164.92,1516.23"/>
    </edge>
    <edge id=":4348259325_6" function="internal">
        <lane id=":4348259325_6_0" index="0" disallow="tram rail_urban rail rail_electric rail_fast ship" speed="6.65" length="9.22" shape="1164.35,1524.36 1165.95,1522.49 1166.58,1520.51 1166.24,1518.43 1164.92,1516.23"/>
    </edge>
    <edge id=":4348259325_7" function="internal">
        <lane id=":4348259325_7_0" index="0" disallow="tram rail_urban rail rail_electric rail_fast ship" speed="13.89" length="14.40" shape="1164.35,1524.36 1175.23,1514.93"/>
    </edge>
    <edge id=":4348259325_8" function="internal">
        <lane id=":4348259325_8_0" index="0" disallow="tram rail_urban rail rail_electric rail_fast ship" speed="3.65" length="2.34" shape="1164.35,1524.36 1165.78,1524.18 1166.60,1524.52"/>
    </edge>
    <edge id=":4348259325_11" function="internal">
        <lane id=":4348259325_11_0" index="0" disallow="tram rail_urban rail rail_electric rail_fast ship" speed="3.65" length="2.34" shape="1166.60,1524.52 1166.82,1525.39 1166.44,1526.78"/>
    </edge>
    <edge id=":4348259327_0" function="internal">
        <lane id=":4348259327_0_0" index="0" disallow="tram rail_urban rail rail_electric rail_fast ship" speed="5.56" length="9.07" shape="1149.07,1368.00 1146.59,1368.20 1144.79,1369.16 1143.67,1370.87 1143.22,1373.33"/>
    </edge>
    <edge id=":4348259327_1" function="internal">
        <lane id=":4348259327_1_0" index="0" disallow="tram rail_urban rail rail_electric rail_fast ship" speed="5.56" length="14.49" shape="1149.07,1368.00 1134.59,1367.53"/>
    </edge>
    <edge id=":4348259327_2" function="internal">
        <lane id=":4348259327_2_0" index="0" disallow="tram rail_urban rail rail_electric rail_fast ship" speed="3.65" length="4.67" shape="1149.07,1368.00 1147.92,1367.13 1147.57,1366.30 1148.01,1365.53 1149.26,1364.80"/>
    </edge>
    <edge id=":4348259327_3" function="internal">
        <lane id=":4348259327_3_0" index="0" disallow="tram rail_urban rail rail_electric rail_fast ship" speed="5.56" length="14.67" shape="1134.60,1364.33 1149.26,1364.80"/>
    </edge>
    <edge id=":4348259327_4" function="internal">
        <lane id=":4348259327_4_0" index="0" disallow="tram rail_urban rail rail_electric rail_fast ship" speed="5.56" length="14.33" shape="1134.60,1364.33 1138.50,1364.91 1141.24,1366.60 1142.81,1369.41 1143.22,1373.33"/>
    </edge>
    <edge id=":4348259327_5" function="internal">
        <lane id=":4348259327_5_0" index="0" disallow="tram rail_urban rail rail_electric rail_fast ship" speed="3.65" length="4.67" shape="1134.60,1364.33 1135.80,1365.13 1136.19,1365.93 1135.79,1366.73 1134.59,1367.53"/>
    </edge>
    <edge id=":4348259327_6" function="internal">
        <lane id=":4348259327_6_0" index="0" disallow="tram rail_urban rail rail_electric rail_fast ship" speed="5.56" length="9.03" shape="1140.02,1373.21 1139.76,1370.73 1138.77,1368.96 1137.05,1367.89 1134.59,1367.53"/>
    </edge>
    <edge id=":4348259327_7" function="internal">
        <lane id=":4348259327_7_0" index="0" disallow="tram rail_urban rail rail_electric rail_fast ship" speed="5.56" length="14.31" shape="1140.02,1373.21 1140.73,1369.33 1142.51,1366.63 1145.35,1365.13 1149.26,1364.80"/>
    </edge>
    <edge id=":4348259327_8" function="internal">
        <lane id=":4348259327_8_0" index="0" disallow="tram rail_urban rail rail_electric rail_fast ship" speed="3.65" length="4.67" shape="1140.02,1373.21 1140.87,1372.04 1141.68,1371.67 1142.46,1372.10 1143.22,1373.33"/>
    </edge>
    <edge id=":4348259329_0" function="internal">
        <lane id=":4348259329_0_0" index="0" disallow="tram rail_urban rail rail_electric rail_fast ship" speed="3.65" length="4.67" shape="1005.42,1461.67 1004.88,1463.00 1004.17,1463.56 1003.31,1463.33 1002.28,1462.31"/>
    </edge>
    <edge id=":4348259331_0" function="internal">
        <lane id=":4348259331_0_0" index="0" disallow="tram rail_urban rail rail_electric rail_fast ship" speed="5.56" length="0.34" shape="1137.68,1431.89 1137.69,1431.55"/>
    </edge>
    <edge id=":4348259331_1" function="internal">
        <lane id=":4348259331_1_0" index="0" disallow="tram rail_urban rail rail_electric rail_fast ship" speed="3.65" length="4.67" shape="1137.68,1431.89 1138.45,1430.67 1139.23,1430.24 1140.05,1430.62 1140.88,1431.79"/>
    </edge>
    <edge id=":4348259331_2" function="internal">
        <lane id=":4348259331_2_0" index="0" disallow="tram rail_urban rail rail_electric rail_fast ship" speed="5.56" length="0.11" shape="1140.88,1431.68 1140.88,1431.79"/>
    </edge>
    <edge id=":4348259331_3" function="internal">
        <lane id=":4348259331_3_0" index="0" disallow="tram rail_urban rail rail_electric rail_fast ship" speed="3.65" length="4.67" shape="1140.88,1431.68 1140.04,1432.85 1139.22,1433.22 1138.44,1432.78 1137.69,1431.55"/>
    </edge>
    <edge id=":4348259333_0" function="internal">
        <lane id=":4348259333_0_0" index="0" disallow="tram rail_urban rail rail_electric rail_fast ship" speed="13.89" length="0.84" shape="1222.59,1476.36 1222.43,1476.56 1222.33,1476.69 1222.21,1476.81 1222.02,1476.98"/>
    </edge>
    <edge id=":4348259333_1" function="internal">
        <lane id=":4348259333_1_0" index="0" disallow="tram rail_urban rail rail_electric rail_fast ship" speed="3.65" length="2.34" shape="1222.59,1476.36 1221.22,1476.84 1220.35,1476.67"/>
    </edge>
    <edge id=":4348259333_4" function="internal">
        <lane id=":4348259333_4_0" index="0" disallow="tram rail_urban rail rail_electric rail_fast ship" speed="3.65" length="2.34" shape="1220.35,1476.67 1219.95,1475.87 1220.03,1474.43"/>
    </edge>
    <edge id=":4348259333_2" function="internal">
        <lane id=":4348259333_2_0" index="0" disallow="tram rail_urban rail rail_electric rail_fast ship" speed="13.89" length="0.28" shape="1219.84,1474.64 1219.91,1474.58 1219.95,1474.54 1219.98,1474.50 1220.03,1474.43"/>
    </edge>
    <edge id=":4348259333_3" function="internal">
        <lane id=":4348259333_3_0" index="0" disallow="tram rail_urban rail rail_electric rail_fast ship" speed="3.65" length="2.34" shape="1219.84,1474.64 1221.27,1474.41 1222.11,1474.72"/>
    </edge>
    <edge id=":4348259333_5" function="internal">
        <lane id=":4348259333_5_0" index="0" disallow="tram rail_urban rail rail_electric rail_fast ship" speed="3.65" length="2.34" shape="1222.11,1474.72 1222.36,1475.58 1222.02,1476.98"/>
    </edge>
    <edge id=":4348259340_0" function="internal">
        <lane id=":4348259340_0_0" index="0" disallow="tram rail_urban rail rail_electric rail_fast ship" speed="3.65" length="4.67" shape="1325.67,1327.32 1326.40,1326.08 1327.18,1325.63 1328.00,1325.99 1328.87,1327.14"/>
    </edge>
    <edge id=":4348259341_0" function="internal">
        <lane id=":4348259341_0_0" index="0" disallow="tram rail_urban rail rail_electric rail_fast ship" speed="6.88" length="7.28" shape="1300.13,1418.09 1299.29,1416.33 1298.12,1415.05 1296.61,1414.23 1294.76,1413.89"/>
    </edge>
    <edge id=":4348259341_1" function="internal">
        <lane id=":4348259341_1_0" index="0" disallow="tram rail_urban rail rail_electric rail_fast ship" speed="8.12" length="3.80" shape="1300.13,1418.09 1299.56,1415.17 1299.66,1414.35"/>
    </edge>
    <edge id=":4348259341_2" function="internal">
        <lane id=":4348259341_2_0" index="0" disallow="tram rail_urban rail rail_electric rail_fast ship" speed="3.65" length="2.12" shape="1300.13,1418.09 1300.51,1416.70 1300.98,1416.22"/>
    </edge>
    <edge id=":4348259341_9" function="internal">
        <lane id=":4348259341_9_0" index="0" disallow="tram rail_urban rail rail_electric rail_fast ship" speed="8.12" length="7.46" shape="1299.66,1414.35 1299.90,1412.54 1301.15,1410.20 1303.32,1408.16"/>
    </edge>
    <edge id=":4348259341_10" function="internal">
        <lane id=":4348259341_10_0" index="0" disallow="tram rail_urban rail rail_electric rail_fast ship" speed="3.65" length="2.56" shape="1300.98,1416.22 1301.14,1416.07 1302.02,1416.19 1303.16,1417.07"/>
    </edge>
    <edge id=":4348259341_3" function="internal">
        <lane id=":4348259341_3_0" index="0" disallow="tram rail_urban rail rail_electric rail_fast ship" speed="6.60" length="7.17" shape="1305.19,1410.75 1303.81,1412.05 1303.02,1413.54 1302.80,1415.21 1303.16,1417.07"/>
    </edge>
    <edge id=":4348259341_4" function="internal">
        <lane id=":4348259341_4_0" index="0" disallow="tram rail_urban rail rail_electric rail_fast ship" speed="9.72" length="11.22" shape="1305.19,1410.75 1302.56,1412.52 1300.33,1413.52 1297.93,1413.92 1294.76,1413.89"/>
    </edge>
    <edge id=":4348259341_5" function="internal">
        <lane id=":4348259341_5_0" index="0" disallow="tram rail_urban rail rail_electric rail_fast ship" speed="3.65" length="4.67" shape="1305.19,1410.75 1303.75,1410.81 1302.96,1410.39 1302.81,1409.51 1303.32,1408.16"/>
    </edge>
    <edge id=":4348259341_6" function="internal">
        <lane id=":4348259341_6_0" index="0" disallow="tram rail_urban rail rail_electric rail_fast ship" speed="9.72" length="9.06" shape="1294.93,1410.70 1297.59,1410.76 1299.43,1410.48 1301.12,1409.67 1303.32,1408.16"/>
    </edge>
    <edge id=":4348259341_7" function="internal">
        <lane id=":4348259341_7_0" index="0" disallow="tram rail_urban rail rail_electric rail_fast ship" speed="8.37" length="11.13" shape="1294.93,1410.70 1297.77,1411.22 1300.09,1412.45 1301.89,1414.41 1303.16,1417.07"/>
    </edge>
    <edge id=":4348259341_8" function="internal">
        <lane id=":4348259341_8_0" index="0" disallow="tram rail_urban rail rail_electric rail_fast ship" speed="3.65" length="2.54" shape="1294.93,1410.70 1296.09,1411.56 1296.44,1412.38 1296.34,1412.56"/>
    </edge>
    <edge id=":4348259341_11" function="internal">
        <lane id=":4348259341_11_0" index="0" disallow="tram rail_urban rail rail_electric rail_fast ship" speed="3.65" length="2.13" shape="1296.34,1412.56 1296.00,1413.16 1294.76,1413.89"/>
    </edge>
    <edge id=":4348265098_0" function="internal">
        <lane id=":4348265098_0_0" index="0" disallow="tram rail_urban rail rail_electric rail_fast ship" speed="6.89" length="3.37" shape="906.52,1629.33 906.24,1630.27 905.94,1630.90 905.46,1631.40 904.68,1632.00"/>
    </edge>
    <edge id=":4348265098_1" function="internal">
        <lane id=":4348265098_1_0" index="0" disallow="tram rail_urban rail rail_electric rail_fast ship" speed="3.65" length="2.70" shape="906.52,1629.33 905.44,1630.28 904.57,1630.46 904.29,1630.22"/>
    </edge>
    <edge id=":4348265098_4" function="internal">
        <lane id=":4348265098_4_0" index="0" disallow="tram rail_urban rail rail_electric rail_fast ship" speed="3.65" length="1.97" shape="904.29,1630.22 903.89,1629.87 903.43,1628.51"/>
    </edge>
    <edge id=":4348265098_2" function="internal">
        <lane id=":4348265098_2_0" index="0" disallow="tram rail_urban rail rail_electric rail_fast ship" speed="4.33" length="1.12" shape="902.81,1629.40 903.07,1629.20 903.23,1629.03 903.33,1628.82 903.43,1628.51"/>
    </edge>
    <edge id=":4348265098_3" function="internal">
        <lane id=":4348265098_3_0" index="0" disallow="tram rail_urban rail rail_electric rail_fast ship" speed="3.65" length="2.02" shape="902.81,1629.40 904.25,1629.35 904.77,1629.62"/>
    </edge>
    <edge id=":4348265098_5" function="internal">
        <lane id=":4348265098_5_0" index="0" disallow="tram rail_urban rail rail_electric rail_fast ship" speed="3.65" length="2.65" shape="904.77,1629.62 905.04,1629.77 905.19,1630.65 904.68,1632.00"/>
    </edge>
    <edge id=":4348265099_0" function="internal">
        <lane id=":4348265099_0_0" index="0" disallow="tram rail_urban rail rail_electric rail_fast ship" speed="13.89" length="15.21" shape="935.73,1536.42 933.06,1539.10 930.78,1542.17 928.97,1545.54 927.71,1549.10"/>
    </edge>
    <edge id=":4348265099_1" function="internal">