<?xml version="1.0" encoding="UTF-8"?>

<!-- generated on Thursday 12 March 2020 03:29:50 PM IST by Eclipse SUMO netedit Version 1.2.0
<configuration xmlns:xsi="http://www.w3.org/2001/XMLSchema-instance" xsi:noNamespaceSchemaLocation="http://sumo.dlr.de/xsd/netconvertConfiguration.xsd">

    <input>
        <sumo-net-file value="/home/armslab/Desktop/networks_SUMO/Ladder/Ladder.net.xml"/>
    </input>

    <output>
        <output-file value="/home/armslab/Desktop/networks_SUMO/Ladder/Ladder.net.xml"/>
        <plain-output-prefix value="/home/armslab/Desktop/networks_SUMO/Ladder/Ladder"/>
    </output>

    <processing>
        <geometry.max-grade.fix value="false"/>
        <offset.disable-normalization value="true"/>
        <lefthand value="false"/>
    </processing>

    <junctions>
        <no-turnarounds value="true"/>
        <junctions.corner-detail value="5"/>
        <junctions.limit-turn-speed value="5.5"/>
        <rectangular-lane-cut value="false"/>
    </junctions>

    <pedestrian>
        <walkingareas value="false"/>
    </pedestrian>

</configuration>
-->

<nodes version="1.1" xmlns:xsi="http://www.w3.org/2001/XMLSchema-instance" xsi:noNamespaceSchemaLocation="http://sumo.dlr.de/xsd/nodes_file.xsd">
    <location netOffset="0.00,0.00" convBoundary="100.00,-200.00,900.00,1.02" origBoundary="-10000000000.00,-10000000000.00,10000000000.00,10000000000.00" projParameter="!"/>

    <node id="gneJ1" x="100.00" y="0.00" type="priority"/>
    <node id="gneJ10" x="100.00" y="-200.00" type="priority"/>
    <node id="gneJ11" x="200.00" y="-200.00" type="priority"/>
    <node id="gneJ12" x="300.00" y="-200.00" type="priority"/>
    <node id="gneJ13" x="400.00" y="-200.00" type="priority"/>
    <node id="gneJ14" x="500.00" y="-200.00" type="priority"/>
    <node id="gneJ15" x="600.00" y="-200.00" type="priority"/>
    <node id="gneJ16" x="700.00" y="-200.00" type="priority"/>
    <node id="gneJ17" x="800.00" y="-200.00" type="priority"/>
    <node id="gneJ18" x="900.00" y="-200.00" type="priority"/>
    <node id="gneJ2" x="199.54" y="1.02" type="priority"/>
    <node id="gneJ22" x="300.00" y="-200.00" type="priority"/>
    <node id="gneJ24" x="500.00" y="0.00" type="priority"/>
    <node id="gneJ26" x="800.00" y="-200.00" type="priority"/>
    <node id="gneJ3" x="300.00" y="0.00" type="priority"/>
    <node id="gneJ4" x="400.00" y="0.00" type="priority"/>
    <node id="gneJ6" x="600.00" y="0.00" type="priority"/>
    <node id="gneJ7" x="700.00" y="0.00" type="priority"/>
    <node id="gneJ8" x="800.00" y="0.00" type="priority"/>
    <node id="gneJ9" x="900.00" y="0.00" type="priority"/>
</nodes>
