<?xml version="1.0" encoding="UTF-8"?>

<!-- generated on Thursday 12 March 2020 03:29:19 PM IST by Eclipse SUMO netedit Version 1.2.0
<configuration xmlns:xsi="http://www.w3.org/2001/XMLSchema-instance" xsi:noNamespaceSchemaLocation="http://sumo.dlr.de/xsd/netconvertConfiguration.xsd">

    <input>
        <sumo-net-file value="/home/armslab/Desktop/networks_SUMO/Ladder/Ladder.net.xml"/>
    </input>

    <output>
        <output-file value="/home/armslab/Desktop/networks_SUMO/Ladder/Ladder.net.xml"/>
    </output>

    <processing>
        <geometry.max-grade.fix value="false"/>
        <offset.disable-normalization value="true"/>
        <lefthand value="false"/>
    </processing>

    <junctions>
        <no-turnarounds value="true"/>
        <junctions.corner-detail value="5"/>
        <junctions.limit-turn-speed value="5.5"/>
        <rectangular-lane-cut value="false"/>
    </junctions>

    <pedestrian>
        <walkingareas value="false"/>
    </pedestrian>

</configuration>
-->

<net version="1.1" junctionCornerDetail="5" limitTurnSpeed="5.50" xmlns:xsi="http://www.w3.org/2001/XMLSchema-instance" xsi:noNamespaceSchemaLocation="http://sumo.dlr.de/xsd/net_file.xsd">

    <location netOffset="0.00,0.00" convBoundary="100.00,-200.00,900.00,1.02" origBoundary="-10000000000.00,-10000000000.00,10000000000.00,10000000000.00" projParameter="!"/>

    <edge id=":gneJ1_0" function="internal">
        <lane id=":gneJ1_0_0" index="0" speed="3.82" length="5.11" width="3.50" shape="99.98,1.75 98.68,0.86 98.25,-0.02 98.70,-0.89 100.02,-1.75"/>
    </edge>
    <edge id=":gneJ10_0" function="internal">
        <lane id=":gneJ10_0_0" index="0" speed="3.82" length="5.11" width="3.50" shape="100.00,-198.25 98.69,-199.12 98.25,-200.00 98.69,-200.88 100.00,-201.75"/>
    </edge>
    <edge id=":gneJ11_0" function="internal">
        <lane id=":gneJ11_0_0" index="0" speed="6.63" length="9.29" width="3.50" shape="207.49,-198.25 204.98,-197.89 203.18,-196.81 202.10,-195.01 201.73,-192.49"/>
    </edge>
    <edge id=":gneJ11_1" function="internal">
        <lane id=":gneJ11_1_0" index="0" speed="13.89" length="15.00" width="3.50" shape="207.49,-198.25 192.49,-198.25"/>
    </edge>
    <edge id=":gneJ11_2" function="internal">
        <lane id=":gneJ11_2_0" index="0" speed="3.82" length="2.56" width="3.50" shape="207.49,-198.25 206.18,-199.12 205.74,-200.00"/>
    </edge>
    <edge id=":gneJ11_9" function="internal">
        <lane id=":gneJ11_9_0" index="0" speed="3.82" length="2.56" width="3.50" shape="205.74,-200.00 206.18,-200.88 207.49,-201.75"/>
    </edge>
    <edge id=":gneJ11_3" function="internal">
        <lane id=":gneJ11_3_0" index="0" speed="13.89" length="15.00" width="3.50" shape="192.49,-201.75 207.49,-201.75"/>
    </edge>
    <edge id=":gneJ11_4" function="internal">
        <lane id=":gneJ11_4_0" index="0" speed="8.21" length="6.37" width="3.50" shape="192.49,-201.75 196.54,-201.17 198.49,-200.00"/>
    </edge>
    <edge id=":gneJ11_5" function="internal">
        <lane id=":gneJ11_5_0" index="0" speed="3.82" length="2.56" width="3.50" shape="192.49,-201.75 193.80,-200.88 194.24,-200.00"/>
    </edge>
    <edge id=":gneJ11_10" function="internal">
        <lane id=":gneJ11_10_0" index="0" speed="8.21" length="8.56" width="3.50" shape="198.49,-200.00 199.43,-199.43 201.16,-196.54 201.73,-192.49"/>
    </edge>
    <edge id=":gneJ11_11" function="internal">
        <lane id=":gneJ11_11_0" index="0" speed="3.82" length="2.56" width="3.50" shape="194.24,-200.00 193.80,-199.12 192.49,-198.25"/>
    </edge>
    <edge id=":gneJ11_6" function="internal">
        <lane id=":gneJ11_6_0" index="0" speed="6.61" length="9.27" width="3.50" shape="198.23,-192.50 197.88,-195.01 196.80,-196.81 195.01,-197.89 192.49,-198.25"/>
    </edge>
    <edge id=":gneJ11_7" function="internal">
        <lane id=":gneJ11_7_0" index="0" speed="8.22" length="14.92" width="3.50" shape="198.23,-192.50 198.82,-196.54 200.56,-199.44 203.45,-201.17 207.49,-201.75"/>
    </edge>
    <edge id=":gneJ11_8" function="internal">
        <lane id=":gneJ11_8_0" index="0" speed="3.82" length="5.11" width="3.50" shape="198.23,-192.50 199.11,-193.81 199.99,-194.24 200.86,-193.80 201.73,-192.49"/>
    </edge>
    <edge id=":gneJ12_0" function="internal">
        <lane id=":gneJ12_0_0" index="0" speed="13.89" length="0.10" width="3.50" shape="300.00,-198.25 300.00,-198.25"/>
    </edge>
    <edge id=":gneJ12_1" function="internal">
        <lane id=":gneJ12_1_0" index="0" speed="3.82" length="2.56" width="3.50" shape="300.00,-198.25 298.69,-199.12 298.25,-200.00"/>
    </edge>
    <edge id=":gneJ12_4" function="internal">
        <lane id=":gneJ12_4_0" index="0" speed="3.82" length="2.56" width="3.50" shape="298.25,-200.00 298.69,-200.88 300.00,-201.75"/>
    </edge>
    <edge id=":gneJ12_2" function="internal">
        <lane id=":gneJ12_2_0" index="0" speed="13.89" length="0.10" width="3.50" shape="300.00,-201.75 300.00,-201.75"/>
    </edge>
    <edge id=":gneJ12_3" function="internal">
        <lane id=":gneJ12_3_0" index="0" speed="3.82" length="2.56" width="3.50" shape="300.00,-201.75 301.31,-200.88 301.75,-200.00"/>
    </edge>
    <edge id=":gneJ12_5" function="internal">
        <lane id=":gneJ12_5_0" index="0" speed="3.82" length="2.56" width="3.50" shape="301.75,-200.00 301.31,-199.12 300.00,-198.25"/>
    </edge>
    <edge id=":gneJ13_0" function="internal">
        <lane id=":gneJ13_0_0" index="0" speed="6.62" length="9.27" width="3.50" shape="398.25,-192.50 397.89,-195.02 396.81,-196.81 395.02,-197.89 392.50,-198.25"/>
    </edge>
    <edge id=":gneJ13_1" function="internal">
        <lane id=":gneJ13_1_0" index="0" speed="8.22" length="14.92" width="3.50" shape="398.25,-192.50 398.83,-196.55 400.56,-199.44 403.45,-201.17 407.50,-201.75"/>
    </edge>
    <edge id=":gneJ13_2" function="internal">
        <lane id=":gneJ13_2_0" index="0" speed="3.82" length="5.11" width="3.50" shape="398.25,-192.50 399.12,-193.81 400.00,-194.25 400.88,-193.81 401.75,-192.50"/>
    </edge>
    <edge id=":gneJ13_3" function="internal">
        <lane id=":gneJ13_3_0" index="0" speed="6.62" length="9.27" width="3.50" shape="407.50,-198.25 404.98,-197.89 403.19,-196.81 402.11,-195.02 401.75,-192.50"/>
    </edge>
    <edge id=":gneJ13_4" function="internal">
        <lane id=":gneJ13_4_0" index="0" speed="13.89" length="15.00" width="3.50" shape="407.50,-198.25 392.50,-198.25"/>
    </edge>
    <edge id=":gneJ13_5" function="internal">
        <lane id=":gneJ13_5_0" index="0" speed="3.82" length="2.56" width="3.50" shape="407.50,-198.25 406.19,-199.12 405.75,-200.00"/>
    </edge>
    <edge id=":gneJ13_9" function="internal">
        <lane id=":gneJ13_9_0" index="0" speed="3.82" length="2.56" width="3.50" shape="405.75,-200.00 406.19,-200.88 407.50,-201.75"/>
    </edge>
    <edge id=":gneJ13_6" function="internal">
        <lane id=":gneJ13_6_0" index="0" speed="13.89" length="15.00" width="3.50" shape="392.50,-201.75 407.50,-201.75"/>
    </edge>
    <edge id=":gneJ13_7" function="internal">
        <lane id=":gneJ13_7_0" index="0" speed="8.22" length="6.37" width="3.50" shape="392.50,-201.75 396.55,-201.17 398.50,-200.00"/>
    </edge>
    <edge id=":gneJ13_8" function="internal">
        <lane id=":gneJ13_8_0" index="0" speed="3.82" length="2.56" width="3.50" shape="392.50,-201.75 393.81,-200.88 394.25,-200.00"/>
    </edge>
    <edge id=":gneJ13_10" function="internal">
        <lane id=":gneJ13_10_0" index="0" speed="8.22" length="8.55" width="3.50" shape="398.50,-200.00 399.44,-199.44 401.17,-196.55 401.75,-192.50"/>
    </edge>
    <edge id=":gneJ13_11" function="internal">
        <lane id=":gneJ13_11_0" index="0" speed="3.82" length="2.56" width="3.50" shape="394.25,-200.00 393.81,-199.12 392.50,-198.25"/>
    </edge>
    <edge id=":gneJ14_0" function="internal">
        <lane id=":gneJ14_0_0" index="0" speed="6.62" length="9.27" width="3.50" shape="498.25,-192.50 497.89,-195.02 496.81,-196.81 495.02,-197.89 492.50,-198.25"/>
    </edge>
    <edge id=":gneJ14_1" function="internal">
        <lane id=":gneJ14_1_0" index="0" speed="8.22" length="14.92" width="3.50" shape="498.25,-192.50 498.83,-196.55 500.56,-199.44 503.45,-201.17 507.50,-201.75"/>
    </edge>
    <edge id=":gneJ14_2" function="internal">
        <lane id=":gneJ14_2_0" index="0" speed="3.82" length="5.11" width="3.50" shape="498.25,-192.50 499.12,-193.81 500.00,-194.25 500.88,-193.81 501.75,-192.50"/>
    </edge>
    <edge id=":gneJ14_3" function="internal">
        <lane id=":gneJ14_3_0" index="0" speed="6.62" length="9.27" width="3.50" shape="507.50,-198.25 504.98,-197.89 503.19,-196.81 502.11,-195.02 501.75,-192.50"/>
    </edge>
    <edge id=":gneJ14_4" function="internal">
        <lane id=":gneJ14_4_0" index="0" speed="13.89" length="15.00" width="3.50" shape="507.50,-198.25 492.50,-198.25"/>
    </edge>
    <edge id=":gneJ14_5" function="internal">
        <lane id=":gneJ14_5_0" index="0" speed="3.82" length="2.56" width="3.50" shape="507.50,-198.25 506.19,-199.12 505.75,-200.00"/>
    </edge>
    <edge id=":gneJ14_9" function="internal">
        <lane id=":gneJ14_9_0" index="0" speed="3.82" length="2.56" width="3.50" shape="505.75,-200.00 506.19,-200.88 507.50,-201.75"/>
    </edge>
    <edge id=":gneJ14_6" function="internal">
        <lane id=":gneJ14_6_0" index="0" speed="13.89" length="15.00" width="3.50" shape="492.50,-201.75 507.50,-201.75"/>
    </edge>
    <edge id=":gneJ14_7" function="internal">
        <lane id=":gneJ14_7_0" index="0" speed="8.22" length="6.37" width="3.50" shape="492.50,-201.75 496.55,-201.17 498.50,-200.00"/>
    </edge>
    <edge id=":gneJ14_8" function="internal">
        <lane id=":gneJ14_8_0" index="0" speed="3.82" length="2.56" width="3.50" shape="492.50,-201.75 493.81,-200.88 494.25,-200.00"/>
    </edge>
    <edge id=":gneJ14_10" function="internal">
        <lane id=":gneJ14_10_0" index="0" speed="8.22" length="8.55" width="3.50" shape="498.50,-200.00 499.44,-199.44 501.17,-196.55 501.75,-192.50"/>
    </edge>
    <edge id=":gneJ14_11" function="internal">
        <lane id=":gneJ14_11_0" index="0" speed="3.82" length="2.56" width="3.50" shape="494.25,-200.00 493.81,-199.12 492.50,-198.25"/>
    </edge>
    <edge id=":gneJ15_0" function="internal">
        <lane id=":gneJ15_0_0" index="0" speed="6.62" length="9.27" width="3.50" shape="598.25,-192.50 597.89,-195.02 596.81,-196.81 595.02,-197.89 592.50,-198.25"/>
    </edge>
    <edge id=":gneJ15_1" function="internal">
        <lane id=":gneJ15_1_0" index="0" speed="8.22" length="14.92" width="3.50" shape="598.25,-192.50 598.83,-196.55 600.56,-199.44 603.45,-201.17 607.50,-201.75"/>
    </edge>
    <edge id=":gneJ15_2" function="internal">
        <lane id=":gneJ15_2_0" index="0" speed="3.82" length="5.11" width="3.50" shape="598.25,-192.50 599.12,-193.81 600.00,-194.25 600.88,-193.81 601.75,-192.50"/>
    </edge>
    <edge id=":gneJ15_3" function="internal">
        <lane id=":gneJ15_3_0" index="0" speed="6.62" length="9.27" width="3.50" shape="607.50,-198.25 604.98,-197.89 603.19,-196.81 602.11,-195.02 601.75,-192.50"/>
    </edge>
    <edge id=":gneJ15_4" function="internal">
        <lane id=":gneJ15_4_0" index="0" speed="13.89" length="15.00" width="3.50" shape="607.50,-198.25 592.50,-198.25"/>
    </edge>
    <edge id=":gneJ15_5" function="internal">
        <lane id=":gneJ15_5_0" index="0" speed="3.82" length="2.56" width="3.50" shape="607.50,-198.25 606.19,-199.12 605.75,-200.00"/>
    </edge>
    <edge id=":gneJ15_9" function="internal">
        <lane id=":gneJ15_9_0" index="0" speed="3.82" length="2.56" width="3.50" shape="605.75,-200.00 606.19,-200.88 607.50,-201.75"/>
    </edge>
    <edge id=":gneJ15_6" function="internal">
        <lane id=":gneJ15_6_0" index="0" speed="13.89" length="15.00" width="3.50" shape="592.50,-201.75 607.50,-201.75"/>
    </edge>
    <edge id=":gneJ15_7" function="internal">
        <lane id=":gneJ15_7_0" index="0" speed="8.22" length="6.37" width="3.50" shape="592.50,-201.75 596.55,-201.17 598.50,-200.00"/>
    </edge>
    <edge id=":gneJ15_8" function="internal">
        <lane id=":gneJ15_8_0" index="0" speed="3.82" length="2.56" width="3.50" shape="592.50,-201.75 593.81,-200.88 594.25,-200.00"/>
    </edge>
    <edge id=":gneJ15_10" function="internal">
        <lane id=":gneJ15_10_0" index="0" speed="8.22" length="8.55" width="3.50" shape="598.50,-200.00 599.44,-199.44 601.17,-196.55 601.75,-192.50"/>
    </edge>
    <edge id=":gneJ15_11" function="internal">
        <lane id=":gneJ15_11_0" index="0" speed="3.82" length="2.56" width="3.50" shape="594.25,-200.00 593.81,-199.12 592.50,-198.25"/>
    </edge>
    <edge id=":gneJ16_0" function="internal">
        <lane id=":gneJ16_0_0" index="0" speed="6.62" length="9.27" width="3.50" shape="698.25,-192.50 697.89,-195.02 696.81,-196.81 695.02,-197.89 692.50,-198.25"/>
    </edge>
    <edge id=":gneJ16_1" function="internal">
        <lane id=":gneJ16_1_0" index="0" speed="8.22" length="14.92" width="3.50" shape="698.25,-192.50 698.83,-196.55 700.56,-199.44 703.45,-201.17 707.50,-201.75"/>
    </edge>
    <edge id=":gneJ16_2" function="internal">
        <lane id=":gneJ16_2_0" index="0" speed="3.82" length="5.11" width="3.50" shape="698.25,-192.50 699.12,-193.81 700.00,-194.25 700.88,-193.81 701.75,-192.50"/>
    </edge>
    <edge id=":gneJ16_3" function="internal">
        <lane id=":gneJ16_3_0" index="0" speed="6.62" length="9.27" width="3.50" shape="707.50,-198.25 704.98,-197.89 703.19,-196.81 702.11,-195.02 701.75,-192.50"/>
    </edge>
    <edge id=":gneJ16_4" function="internal">
        <lane id=":gneJ16_4_0" index="0" speed="13.89" length="15.00" width="3.50" shape="707.50,-198.25 692.50,-198.25"/>
    </edge>
    <edge id=":gneJ16_5" function="internal">
        <lane id=":gneJ16_5_0" index="0" speed="3.82" length="2.56" width="3.50" shape="707.50,-198.25 706.19,-199.12 705.75,-200.00"/>
    </edge>
    <edge id=":gneJ16_9" function="internal">
        <lane id=":gneJ16_9_0" index="0" speed="3.82" length="2.56" width="3.50" shape="705.75,-200.00 706.19,-200.88 707.50,-201.75"/>
    </edge>
    <edge id=":gneJ16_6" function="internal">
        <lane id=":gneJ16_6_0" index="0" speed="13.89" length="15.00" width="3.50" shape="692.50,-201.75 707.50,-201.75"/>
    </edge>
    <edge id=":gneJ16_7" function="internal">
        <lane id=":gneJ16_7_0" index="0" speed="8.22" length="6.37" width="3.50" shape="692.50,-201.75 696.55,-201.17 698.50,-200.00"/>
    </edge>
    <edge id=":gneJ16_8" function="internal">
        <lane id=":gneJ16_8_0" index="0" speed="3.82" length="2.56" width="3.50" shape="692.50,-201.75 693.81,-200.88 694.25,-200.00"/>
    </edge>
    <edge id=":gneJ16_10" function="internal">
        <lane id=":gneJ16_10_0" index="0" speed="8.22" length="8.55" width="3.50" shape="698.50,-200.00 699.44,-199.44 701.17,-196.55 701.75,-192.50"/>
    </edge>
    <edge id=":gneJ16_11" function="internal">
        <lane id=":gneJ16_11_0" index="0" speed="3.82" length="2.56" width="3.50" shape="694.25,-200.00 693.81,-199.12 692.50,-198.25"/>
    </edge>
    <edge id=":gneJ17_0" function="internal">
        <lane id=":gneJ17_0_0" index="0" speed="13.89" length="0.10" width="3.50" shape="800.00,-198.25 800.00,-198.25"/>
    </edge>
    <edge id=":gneJ17_1" function="internal">
        <lane id=":gneJ17_1_0" index="0" speed="3.82" length="2.56" width="3.50" shape="800.00,-198.25 798.69,-199.12 798.25,-200.00"/>
    </edge>
    <edge id=":gneJ17_4" function="internal">
        <lane id=":gneJ17_4_0" index="0" speed="3.82" length="2.56" width="3.50" shape="798.25,-200.00 798.69,-200.88 800.00,-201.75"/>
    </edge>
    <edge id=":gneJ17_2" function="internal">
        <lane id=":gneJ17_2_0" index="0" speed="13.89" length="0.10" width="3.50" shape="800.00,-201.75 800.00,-201.75"/>
    </edge>
    <edge id=":gneJ17_3" function="internal">
        <lane id=":gneJ17_3_0" index="0" speed="3.82" length="2.56" width="3.50" shape="800.00,-201.75 801.31,-200.88 801.75,-200.00"/>
    </edge>
    <edge id=":gneJ17_5" function="internal">
        <lane id=":gneJ17_5_0" index="0" speed="3.82" length="2.56" width="3.50" shape="801.75,-200.00 801.31,-199.12 800.00,-198.25"/>
    </edge>
    <edge id=":gneJ18_0" function="internal">
        <lane id=":gneJ18_0_0" index="0" speed="3.82" length="5.11" width="3.50" shape="900.00,-201.75 901.31,-200.88 901.75,-200.00 901.31,-199.12 900.00,-198.25"/>
    </edge>
    <edge id=":gneJ2_0" function="internal">
        <lane id=":gneJ2_0_0" index="0" speed="13.89" length="15.11" width="3.50" shape="207.10,2.69 191.99,2.69"/>
    </edge>
    <edge id=":gneJ2_1" function="internal">
        <lane id=":gneJ2_1_0" index="0" speed="8.19" length="6.49" width="3.50" shape="207.10,2.69 203.03,2.15 200.98,0.94"/>
    </edge>
    <edge id=":gneJ2_2" function="internal">
        <lane id=":gneJ2_2_0" index="0" speed="3.82" length="2.56" width="3.50" shape="207.10,2.69 205.78,1.83 205.33,0.96"/>
    </edge>
    <edge id=":gneJ2_9" function="internal">
        <lane id=":gneJ2_9_0" index="0" speed="8.19" length="8.48" width="3.50" shape="200.98,0.94 200.12,0.44 198.38,-2.46 197.81,-6.53"/>
    </edge>
    <edge id=":gneJ2_10" function="internal">
        <lane id=":gneJ2_10_0" index="0" speed="3.82" length="2.56" width="3.50" shape="205.33,0.96 205.76,0.08 207.07,-0.81"/>
    </edge>
    <edge id=":gneJ2_3" function="internal">
        <lane id=":gneJ2_3_0" index="0" speed="6.59" length="9.28" width="3.50" shape="201.31,-6.52 201.66,-4.00 202.74,-2.21 204.54,-1.14 207.07,-0.81"/>
    </edge>
    <edge id=":gneJ2_4" function="internal">
        <lane id=":gneJ2_4_0" index="0" speed="8.20" length="14.97" width="3.50" shape="201.31,-6.52 200.72,-2.45 198.97,0.44 196.06,2.15 191.99,2.69"/>
    </edge>
    <edge id=":gneJ2_5" function="internal">
        <lane id=":gneJ2_5_0" index="0" speed="3.82" length="5.11" width="3.50" shape="201.31,-6.52 200.43,-5.21 199.55,-4.77 198.68,-5.21 197.81,-6.53"/>
    </edge>
    <edge id=":gneJ2_6" function="internal">
        <lane id=":gneJ2_6_0" index="0" speed="6.60" length="9.29" width="3.50" shape="192.03,-0.81 194.55,-1.14 196.36,-2.21 197.44,-4.00 197.81,-6.53"/>
    </edge>
    <edge id=":gneJ2_7" function="internal">
        <lane id=":gneJ2_7_0" index="0" speed="13.89" length="15.04" width="3.50" shape="192.03,-0.81 207.07,-0.81"/>
    </edge>
    <edge id=":gneJ2_8" function="internal">
        <lane id=":gneJ2_8_0" index="0" speed="3.82" length="2.56" width="3.50" shape="192.03,-0.81 193.33,0.08 193.76,0.96"/>
    </edge>
    <edge id=":gneJ2_11" function="internal">
        <lane id=":gneJ2_11_0" index="0" speed="3.82" length="2.56" width="3.50" shape="193.76,0.96 193.32,1.83 191.99,2.69"/>
    </edge>
    <edge id=":gneJ22_0" function="internal">
        <lane id=":gneJ22_0_0" index="0" speed="3.82" length="5.11" width="3.50" shape="298.25,-200.00 299.12,-201.31 300.00,-201.75 300.88,-201.31 301.75,-200.00"/>
    </edge>
    <edge id=":gneJ24_0" function="internal">
        <lane id=":gneJ24_0_0" index="0" speed="13.89" length="15.00" width="3.50" shape="507.50,1.75 492.50,1.75"/>
    </edge>
    <edge id=":gneJ24_1" function="internal">
        <lane id=":gneJ24_1_0" index="0" speed="8.22" length="6.37" width="3.50" shape="507.50,1.75 503.45,1.17 501.50,0.00"/>
    </edge>
    <edge id=":gneJ24_2" function="internal">
        <lane id=":gneJ24_2_0" index="0" speed="3.82" length="2.56" width="3.50" shape="507.50,1.75 506.19,0.88 505.75,0.00"/>
    </edge>
    <edge id=":gneJ24_9" function="internal">
        <lane id=":gneJ24_9_0" index="0" speed="8.22" length="8.55" width="3.50" shape="501.50,0.00 500.56,-0.56 498.83,-3.45 498.25,-7.50"/>
    </edge>
    <edge id=":gneJ24_10" function="internal">
        <lane id=":gneJ24_10_0" index="0" speed="3.82" length="2.56" width="3.50" shape="505.75,0.00 506.19,-0.88 507.50,-1.75"/>
    </edge>
    <edge id=":gneJ24_3" function="internal">
        <lane id=":gneJ24_3_0" index="0" speed="6.62" length="9.27" width="3.50" shape="501.75,-7.50 502.11,-4.98 503.19,-3.19 504.98,-2.11 507.50,-1.75"/>
    </edge>
    <edge id=":gneJ24_4" function="internal">
        <lane id=":gneJ24_4_0" index="0" speed="8.22" length="14.92" width="3.50" shape="501.75,-7.50 501.17,-3.45 499.44,-0.56 496.55,1.17 492.50,1.75"/>
    </edge>
    <edge id=":gneJ24_5" function="internal">
        <lane id=":gneJ24_5_0" index="0" speed="3.82" length="5.11" width="3.50" shape="501.75,-7.50 500.88,-6.19 500.00,-5.75 499.12,-6.19 498.25,-7.50"/>
    </edge>
    <edge id=":gneJ24_6" function="internal">
        <lane id=":gneJ24_6_0" index="0" speed="6.62" length="9.27" width="3.50" shape="492.50,-1.75 495.02,-2.11 496.81,-3.19 497.89,-4.98 498.25,-7.50"/>
    </edge>
    <edge id=":gneJ24_7" function="internal">
        <lane id=":gneJ24_7_0" index="0" speed="13.89" length="15.00" width="3.50" shape="492.50,-1.75 507.50,-1.75"/>
    </edge>
    <edge id=":gneJ24_8" function="internal">
        <lane id=":gneJ24_8_0" index="0" speed="3.82" length="2.56" width="3.50" shape="492.50,-1.75 493.81,-0.88 494.25,0.00"/>
    </edge>
    <edge id=":gneJ24_11" function="internal">
        <lane id=":gneJ24_11_0" index="0" speed="3.82" length="2.56" width="3.50" shape="494.25,0.00 493.81,0.88 492.50,1.75"/>
    </edge>
    <edge id=":gneJ26_0" function="internal">
        <lane id=":gneJ26_0_0" index="0" speed="3.82" length="5.11" width="3.50" shape="798.25,-200.00 799.12,-201.31 800.00,-201.75 800.88,-201.31 801.75,-200.00"/>
    </edge>
    <edge id=":gneJ3_0" function="internal">
        <lane id=":gneJ3_0_0" index="0" speed="13.89" length="14.95" width="3.50" shape="307.50,1.75 292.55,1.83"/>
    </edge>
    <edge id=":gneJ3_1" function="internal">
        <lane id=":gneJ3_1_0" index="0" speed="8.22" length="6.31" width="3.50" shape="307.50,1.75 303.45,1.17 301.55,0.03"/>
    </edge>
    <edge id=":gneJ3_2" function="internal">
        <lane id=":gneJ3_2_0" index="0" speed="3.82" length="2.56" width="3.50" shape="307.50,1.75 306.19,0.88 305.75,0.00"/>
    </edge>
    <edge id=":gneJ3_9" function="internal">
        <lane id=":gneJ3_9_0" index="0" speed="8.22" length="8.61" width="3.50" shape="301.55,0.03 300.56,-0.56 298.83,-3.45 298.25,-7.50"/>
    </edge>
    <edge id=":gneJ3_10" function="internal">
        <lane id=":gneJ3_10_0" index="0" speed="3.82" length="2.56" width="3.50" shape="305.75,0.00 306.19,-0.88 307.50,-1.75"/>
    </edge>
    <edge id=":gneJ3_3" function="internal">
        <lane id=":gneJ3_3_0" index="0" speed="6.62" length="9.27" width="3.50" shape="301.75,-7.50 302.11,-4.98 303.19,-3.19 304.98,-2.11 307.50,-1.75"/>
    </edge>
    <edge id=":gneJ3_4" function="internal">
        <lane id=":gneJ3_4_0" index="0" speed="8.24" length="14.90" width="3.50" shape="301.75,-7.50 301.18,-3.46 299.45,-0.55 296.58,1.21 292.55,1.83"/>
    </edge>
    <edge id=":gneJ3_5" function="internal">
        <lane id=":gneJ3_5_0" index="0" speed="3.82" length="5.11" width="3.50" shape="301.75,-7.50 300.88,-6.19 300.00,-5.75 299.12,-6.19 298.25,-7.50"/>
    </edge>
    <edge id=":gneJ3_6" function="internal">
        <lane id=":gneJ3_6_0" index="0" speed="6.65" length="9.30" width="3.50" shape="292.52,-1.67 295.03,-2.06 296.82,-3.16 297.89,-4.97 298.25,-7.50"/>
    </edge>
    <edge id=":gneJ3_7" function="internal">
        <lane id=":gneJ3_7_0" index="0" speed="13.89" length="14.98" width="3.50" shape="292.52,-1.67 307.50,-1.75"/>
    </edge>
    <edge id=":gneJ3_8" function="internal">
        <lane id=":gneJ3_8_0" index="0" speed="3.82" length="2.56" width="3.50" shape="292.52,-1.67 293.84,-0.81 294.29,0.06"/>
    </edge>
    <edge id=":gneJ3_11" function="internal">
        <lane id=":gneJ3_11_0" index="0" speed="3.82" length="2.56" width="3.50" shape="294.29,0.06 293.86,0.94 292.55,1.83"/>
    </edge>
    <edge id=":gneJ4_0" function="internal">
        <lane id=":gneJ4_0_0" index="0" speed="13.89" length="15.00" width="3.50" shape="407.50,1.75 392.50,1.75"/>
    </edge>
    <edge id=":gneJ4_1" function="internal">
        <lane id=":gneJ4_1_0" index="0" speed="8.22" length="6.37" width="3.50" shape="407.50,1.75 403.45,1.17 401.50,0.00"/>
    </edge>
    <edge id=":gneJ4_2" function="internal">
        <lane id=":gneJ4_2_0" index="0" speed="3.82" length="2.56" width="3.50" shape="407.50,1.75 406.19,0.88 405.75,0.00"/>
    </edge>
    <edge id=":gneJ4_9" function="internal">
        <lane id=":gneJ4_9_0" index="0" speed="8.22" length="8.55" width="3.50" shape="401.50,0.00 400.56,-0.56 398.83,-3.45 398.25,-7.50"/>
    </edge>
    <edge id=":gneJ4_10" function="internal">
        <lane id=":gneJ4_10_0" index="0" speed="3.82" length="2.56" width="3.50" shape="405.75,0.00 406.19,-0.88 407.50,-1.75"/>
    </edge>
    <edge id=":gneJ4_3" function="internal">
        <lane id=":gneJ4_3_0" index="0" speed="6.62" length="9.27" width="3.50" shape="401.75,-7.50 402.11,-4.98 403.19,-3.19 404.98,-2.11 407.50,-1.75"/>
    </edge>
    <edge id=":gneJ4_4" function="internal">
        <lane id=":gneJ4_4_0" index="0" speed="8.22" length="14.92" width="3.50" shape="401.75,-7.50 401.17,-3.45 399.44,-0.56 396.55,1.17 392.50,1.75"/>
    </edge>
    <edge id=":gneJ4_5" function="internal">
        <lane id=":gneJ4_5_0" index="0" speed="3.82" length="5.11" width="3.50" shape="401.75,-7.50 400.88,-6.19 400.00,-5.75 399.12,-6.19 398.25,-7.50"/>
    </edge>
    <edge id=":gneJ4_6" function="internal">
        <lane id=":gneJ4_6_0" index="0" speed="6.62" length="9.27" width="3.50" shape="392.50,-1.75 395.02,-2.11 396.81,-3.19 397.89,-4.98 398.25,-7.50"/>
    </edge>
    <edge id=":gneJ4_7" function="internal">
        <lane id=":gneJ4_7_0" index="0" speed="13.89" length="15.00" width="3.50" shape="392.50,-1.75 407.50,-1.75"/>
    </edge>
    <edge id=":gneJ4_8" function="internal">
        <lane id=":gneJ4_8_0" index="0" speed="3.82" length="2.56" width="3.50" shape="392.50,-1.75 393.81,-0.88 394.25,0.00"/>
    </edge>
    <edge id=":gneJ4_11" function="internal">
        <lane id=":gneJ4_11_0" index="0" speed="3.82" length="2.56" width="3.50" shape="394.25,0.00 393.81,0.88 392.50,1.75"/>
    </edge>
    <edge id=":gneJ6_0" function="internal">
        <lane id=":gneJ6_0_0" index="0" speed="13.89" length="15.00" width="3.50" shape="607.50,1.75 592.50,1.75"/>
    </edge>
    <edge id=":gneJ6_1" function="internal">
        <lane id=":gneJ6_1_0" index="0" speed="8.22" length="6.37" width="3.50" shape="607.50,1.75 603.45,1.17 601.50,0.00"/>
    </edge>
    <edge id=":gneJ6_2" function="internal">
        <lane id=":gneJ6_2_0" index="0" speed="3.82" length="2.56" width="3.50" shape="607.50,1.75 606.19,0.88 605.75,0.00"/>
    </edge>
    <edge id=":gneJ6_9" function="internal">
        <lane id=":gneJ6_9_0" index="0" speed="8.22" length="8.55" width="3.50" shape="601.50,0.00 600.56,-0.56 598.83,-3.45 598.25,-7.50"/>
    </edge>
    <edge id=":gneJ6_10" function="internal">
        <lane id=":gneJ6_10_0" index="0" speed="3.82" length="2.56" width="3.50" shape="605.75,0.00 606.19,-0.88 607.50,-1.75"/>
    </edge>
    <edge id=":gneJ6_3" function="internal">
        <lane id=":gneJ6_3_0" index="0" speed="6.62" length="9.27" width="3.50" shape="601.75,-7.50 602.11,-4.98 603.19,-3.19 604.98,-2.11 607.50,-1.75"/>
    </edge>
    <edge id=":gneJ6_4" function="internal">
        <lane id=":gneJ6_4_0" index="0" speed="8.22" length="14.92" width="3.50" shape="601.75,-7.50 601.17,-3.45 599.44,-0.56 596.55,1.17 592.50,1.75"/>
    </edge>
    <edge id=":gneJ6_5" function="internal">
        <lane id=":gneJ6_5_0" index="0" speed="3.82" length="5.11" width="3.50" shape="601.75,-7.50 600.88,-6.19 600.00,-5.75 599.12,-6.19 598.25,-7.50"/>
    </edge>
    <edge id=":gneJ6_6" function="internal">
        <lane id=":gneJ6_6_0" index="0" speed="6.62" length="9.27" width="3.50" shape="592.50,-1.75 595.02,-2.11 596.81,-3.19 597.89,-4.98 598.25,-7.50"/>
    </edge>
    <edge id=":gneJ6_7" function="internal">
        <lane id=":gneJ6_7_0" index="0" speed="13.89" length="15.00" width="3.50" shape="592.50,-1.75 607.50,-1.75"/>
    </edge>
    <edge id=":gneJ6_8" function="internal">
        <lane id=":gneJ6_8_0" index="0" speed="3.82" length="2.56" width="3.50" shape="592.50,-1.75 593.81,-0.88 594.25,0.00"/>
    </edge>
    <edge id=":gneJ6_11" function="internal">
        <lane id=":gneJ6_11_0" index="0" speed="3.82" length="2.56" width="3.50" shape="594.25,0.00 593.81,0.88 592.50,1.75"/>
    </edge>
    <edge id=":gneJ7_0" function="internal">
        <lane id=":gneJ7_0_0" index="0" speed="13.89" length="15.00" width="3.50" shape="707.50,1.75 692.50,1.75"/>
    </edge>
    <edge id=":gneJ7_1" function="internal">
        <lane id=":gneJ7_1_0" index="0" speed="8.22" length="6.37" width="3.50" shape="707.50,1.75 703.45,1.17 701.50,0.00"/>
    </edge>
    <edge id=":gneJ7_2" function="internal">
        <lane id=":gneJ7_2_0" index="0" speed="3.82" length="2.56" width="3.50" shape="707.50,1.75 706.19,0.88 705.75,0.00"/>
    </edge>
    <edge id=":gneJ7_9" function="internal">
        <lane id=":gneJ7_9_0" index="0" speed="8.22" length="8.55" width="3.50" shape="701.50,0.00 700.56,-0.56 698.83,-3.45 698.25,-7.50"/>
    </edge>
    <edge id=":gneJ7_10" function="internal">
        <lane id=":gneJ7_10_0" index="0" speed="3.82" length="2.56" width="3.50" shape="705.75,0.00 706.19,-0.88 707.50,-1.75"/>
    </edge>
    <edge id=":gneJ7_3" function="internal">
        <lane id=":gneJ7_3_0" index="0" speed="6.62" length="9.27" width="3.50" shape="701.75,-7.50 702.11,-4.98 703.19,-3.19 704.98,-2.11 707.50,-1.75"/>
    </edge>
    <edge id=":gneJ7_4" function="internal">
        <lane id=":gneJ7_4_0" index="0" speed="8.22" length="14.92" width="3.50" shape="701.75,-7.50 701.17,-3.45 699.44,-0.56 696.55,1.17 692.50,1.75"/>
    </edge>
    <edge id=":gneJ7_5" function="internal">