    <routes>
        <vType id="type1" accel="1.0" decel="5.0" length="8.0" maxSpeed="10" sigma="0.0" lcOpposite="inf" />
    </routes>
