<?xml version="1.0" encoding="UTF-8"?>

<!-- generated on Tuesday 18 August 2020 01:30:22 PM IST by Eclipse SUMO netedit Version 1.6.0
<configuration xmlns:xsi="http://www.w3.org/2001/XMLSchema-instance" xsi:noNamespaceSchemaLocation="http://sumo.dlr.de/xsd/netconvertConfiguration.xsd">

    <output>
        <output-file value="/home/dimpleb/Desktop/AssymetricStLine/st_line_assym.net.xml"/>
        <plain-output-prefix value="/home/dimpleb/Desktop/AssymetricStLine/st_line_assym"/>
    </output>

    <processing>
        <offset.disable-normalization value="true"/>
    </processing>

    <junctions>
        <no-turnarounds value="true"/>
    </junctions>

    <report>
        <aggregate-warnings value="5"/>
    </report>

</configuration>
-->

<nodes version="1.6" xmlns:xsi="http://www.w3.org/2001/XMLSchema-instance" xsi:noNamespaceSchemaLocation="http://sumo.dlr.de/xsd/nodes_file.xsd">
    <location netOffset="0.00,0.00" convBoundary="0.00,100.00,800.00,100.00" origBoundary="10000000000.00,10000000000.00,-10000000000.00,-10000000000.00" projParameter="!"/>

    <node id="gneJ0" x="0.00" y="100.00" type="priority"/>
    <node id="gneJ1" x="100.00" y="100.00" type="priority"/>
    <node id="gneJ3" x="300.00" y="100.00" type="priority"/>
    <node id="gneJ4" x="600.00" y="100.00" type="priority"/>
    <node id="gneJ5" x="800.00" y="100.00" type="priority"/>
</nodes>
