<?xml version="1.0" encoding="UTF-8"?>

<!-- generated on Thursday 12 March 2020 12:52:36 PM IST by Eclipse SUMO netedit Version 1.2.0
<configuration xmlns:xsi="http://www.w3.org/2001/XMLSchema-instance" xsi:noNamespaceSchemaLocation="http://sumo.dlr.de/xsd/netconvertConfiguration.xsd">

    <input>
        <sumo-net-file value="/home/armslab/Desktop/networks_SUMO/straightLine/straightline.net.xml"/>
    </input>

    <output>
        <output-file value="/home/armslab/Desktop/networks_SUMO/stLine/stLine.net.xml"/>
        <plain-output-prefix value="/home/armslab/Desktop/networks_SUMO/stLine/stLine"/>
    </output>

    <processing>
        <geometry.max-grade.fix value="false"/>
        <offset.disable-normalization value="true"/>
        <lefthand value="false"/>
    </processing>

    <junctions>
        <no-turnarounds value="true"/>
        <junctions.corner-detail value="5"/>
        <junctions.limit-turn-speed value="5.5"/>
        <rectangular-lane-cut value="false"/>
    </junctions>

    <pedestrian>
        <walkingareas value="false"/>
    </pedestrian>

</configuration>
-->

<nodes version="1.1" xmlns:xsi="http://www.w3.org/2001/XMLSchema-instance" xsi:noNamespaceSchemaLocation="http://sumo.dlr.de/xsd/nodes_file.xsd">
    <location netOffset="0.00,0.00" convBoundary="0.00,98.25,900.03,100.00" origBoundary="-10000000000.00,-10000000000.00,10000000000.00,10000000000.00" projParameter="!"/>

    <node id="gneJ10" x="700.00" y="100.00" type="priority"/>
    <node id="gneJ11" x="800.00" y="100.00" type="priority"/>
    <node id="gneJ12" x="900.00" y="100.00" type="priority"/>
    <node id="gneJ14" x="600.00" y="100.00" type="priority"/>
    <node id="gneJ2" x="0.00" y="100.00" type="priority"/>
    <node id="gneJ3" x="100.00" y="100.00" type="priority"/>
    <node id="gneJ4" x="200.00" y="100.00" type="priority"/>
    <node id="gneJ5" x="300.00" y="100.00" type="priority"/>
    <node id="gneJ6" x="400.00" y="100.00" type="priority"/>
    <node id="gneJ7" x="500.00" y="100.00" type="priority"/>
</nodes>
