<?xml version="1.0" encoding="UTF-8"?>

<!-- generated on Tuesday 18 August 2020 01:30:22 PM IST by Eclipse SUMO netedit Version 1.6.0
<configuration xmlns:xsi="http://www.w3.org/2001/XMLSchema-instance" xsi:noNamespaceSchemaLocation="http://sumo.dlr.de/xsd/netconvertConfiguration.xsd">

    <output>
        <output-file value="/home/dimpleb/Desktop/AssymetricStLine/st_line_assym.net.xml"/>
        <plain-output-prefix value="/home/dimpleb/Desktop/AssymetricStLine/st_line_assym"/>
    </output>

    <processing>
        <offset.disable-normalization value="true"/>
    </processing>

    <junctions>
        <no-turnarounds value="true"/>
    </junctions>

    <report>
        <aggregate-warnings value="5"/>
    </report>

</configuration>
-->

<edges version="1.6" xmlns:xsi="http://www.w3.org/2001/XMLSchema-instance" xsi:noNamespaceSchemaLocation="http://sumo.dlr.de/xsd/edges_file.xsd">
    <edge id="gneE0" from="gneJ0" to="gneJ1" priority="-1" numLanes="1" speed="13.89"/>
    <edge id="gneE1" from="gneJ1" to="gneJ0" priority="-1" numLanes="1" speed="13.89"/>
    <edge id="gneE3" from="gneJ1" to="gneJ3" priority="-1" numLanes="1" speed="13.89"/>
    <edge id="gneE4" from="gneJ3" to="gneJ1" priority="-1" numLanes="1" speed="13.89"/>
    <edge id="gneE5" from="gneJ3" to="gneJ4" priority="-1" numLanes="1" speed="13.89"/>
    <edge id="gneE6" from="gneJ4" to="gneJ3" priority="-1" numLanes="1" speed="13.89"/>
    <edge id="gneE7" from="gneJ4" to="gneJ5" priority="-1" numLanes="1" speed="13.89"/>
    <edge id="gneE9" from="gneJ5" to="gneJ4" priority="-1" numLanes="1" speed="13.89"/>
</edges>
