<?xml version="1.0" encoding="UTF-8"?>

<!-- generated on Thursday 12 March 2020 12:52:36 PM IST by Eclipse SUMO netedit Version 1.2.0
<configuration xmlns:xsi="http://www.w3.org/2001/XMLSchema-instance" xsi:noNamespaceSchemaLocation="http://sumo.dlr.de/xsd/netconvertConfiguration.xsd">

    <input>
        <sumo-net-file value="/home/armslab/Desktop/networks_SUMO/straightLine/straightline.net.xml"/>
    </input>

    <output>
        <output-file value="/home/armslab/Desktop/networks_SUMO/stLine/stLine.net.xml"/>
        <plain-output-prefix value="/home/armslab/Desktop/networks_SUMO/stLine/stLine"/>
    </output>

    <processing>
        <geometry.max-grade.fix value="false"/>
        <offset.disable-normalization value="true"/>
        <lefthand value="false"/>
    </processing>

    <junctions>
        <no-turnarounds value="true"/>
        <junctions.corner-detail value="5"/>
        <junctions.limit-turn-speed value="5.5"/>
        <rectangular-lane-cut value="false"/>
    </junctions>

    <pedestrian>
        <walkingareas value="false"/>
    </pedestrian>

</configuration>
-->

<edges version="1.1" xmlns:xsi="http://www.w3.org/2001/XMLSchema-instance" xsi:noNamespaceSchemaLocation="http://sumo.dlr.de/xsd/edges_file.xsd">
    <edge id="-gneE1" from="gneJ3" to="gneJ2" priority="-1" numLanes="1" speed="8.00" width="3.50"/>
    <edge id="-gneE10" from="gneJ14" to="gneJ7" priority="-1" numLanes="1" speed="8.00" width="3.50"/>
    <edge id="-gneE11" from="gneJ10" to="gneJ14" priority="-1" numLanes="1" speed="8.00" width="3.50"/>
    <edge id="-gneE2" from="gneJ4" to="gneJ3" priority="-1" numLanes="1" speed="8.00" width="3.50"/>
    <edge id="-gneE3" from="gneJ5" to="gneJ4" priority="-1" numLanes="1" speed="8.00" width="3.50"/>
    <edge id="-gneE4" from="gneJ6" to="gneJ5" priority="-1" numLanes="1" speed="8.00" width="3.50"/>
    <edge id="-gneE5" from="gneJ7" to="gneJ6" priority="-1" numLanes="1" speed="8.00" width="3.50"/>
    <edge id="-gneE8" from="gneJ11" to="gneJ10" priority="-1" numLanes="1" speed="8.00" width="3.50"/>
    <edge id="-gneE9" from="gneJ12" to="gneJ11" priority="-1" numLanes="1" speed="8.00" width="3.50"/>
    <edge id="gneE1" from="gneJ2" to="gneJ3" priority="-1" numLanes="1" speed="8.00" width="3.50"/>
    <edge id="gneE10" from="gneJ7" to="gneJ14" priority="-1" numLanes="1" speed="8.00" width="3.50"/>
    <edge id="gneE11" from="gneJ14" to="gneJ10" priority="-1" numLanes="1" speed="8.00" width="3.50"/>
    <edge id="gneE2" from="gneJ3" to="gneJ4" priority="-1" numLanes="1" speed="8.00" width="3.50"/>
    <edge id="gneE3" from="gneJ4" to="gneJ5" priority="-1" numLanes="1" speed="8.00" shape="200.00,98.25 300.03,98.25" spreadType="center" width="3.50"/>
    <edge id="gneE4" from="gneJ5" to="gneJ6" priority="-1" numLanes="1" speed="8.00" width="3.50"/>
    <edge id="gneE5" from="gneJ6" to="gneJ7" priority="-1" numLanes="1" speed="8.00" width="3.50"/>
    <edge id="gneE8" from="gneJ10" to="gneJ11" priority="-1" numLanes="1" speed="8.00" width="3.50"/>
    <edge id="gneE9" from="gneJ11" to="gneJ12" priority="-1" numLanes="1" speed="8.00" shape="800.00,98.25 900.03,98.25" spreadType="center" width="3.50"/>
</edges>
