<?xml version="1.0" encoding="UTF-8"?>

<!-- generated on Tuesday 18 August 2020 01:30:22 PM IST by Eclipse SUMO netedit Version 1.6.0
<configuration xmlns:xsi="http://www.w3.org/2001/XMLSchema-instance" xsi:noNamespaceSchemaLocation="http://sumo.dlr.de/xsd/netconvertConfiguration.xsd">

    <output>
        <output-file value="/home/dimpleb/Desktop/AssymetricStLine/st_line_assym.net.xml"/>
        <plain-output-prefix value="/home/dimpleb/Desktop/AssymetricStLine/st_line_assym"/>
    </output>

    <processing>
        <offset.disable-normalization value="true"/>
    </processing>

    <junctions>
        <no-turnarounds value="true"/>
    </junctions>

    <report>
        <aggregate-warnings value="5"/>
    </report>

</configuration>
-->

<connections version="1.6" xmlns:xsi="http://www.w3.org/2001/XMLSchema-instance" xsi:noNamespaceSchemaLocation="http://sumo.dlr.de/xsd/connections_file.xsd">
    <connection from="gneE0" to="gneE3" fromLane="0" toLane="0"/>
    <connection from="gneE0" to="gneE1" fromLane="0" toLane="0"/>

    <connection from="gneE1" to="gneE0" fromLane="0" toLane="0"/>

    <connection from="gneE3" to="gneE5" fromLane="0" toLane="0"/>
    <connection from="gneE3" to="gneE4" fromLane="0" toLane="0"/>

    <connection from="gneE4" to="gneE1" fromLane="0" toLane="0"/>
    <connection from="gneE4" to="gneE3" fromLane="0" toLane="0"/>

    <connection from="gneE5" to="gneE7" fromLane="0" toLane="0"/>
    <connection from="gneE5" to="gneE6" fromLane="0" toLane="0"/>

    <connection from="gneE6" to="gneE4" fromLane="0" toLane="0"/>
    <connection from="gneE6" to="gneE5" fromLane="0" toLane="0"/>

    <connection from="gneE7" to="gneE9" fromLane="0" toLane="0"/>

    <connection from="gneE9" to="gneE6" fromLane="0" toLane="0"/>
    <connection from="gneE9" to="gneE7" fromLane="0" toLane="0"/>

</connections>
