<?xml version="1.0" encoding="UTF-8"?>

<!-- generated on Sunday 24 May 2020 03:08:12 PM IST by Eclipse SUMO netedit Version 1.6.0
<configuration xmlns:xsi="http://www.w3.org/2001/XMLSchema-instance" xsi:noNamespaceSchemaLocation="http://sumo.dlr.de/xsd/netconvertConfiguration.xsd">

    <input>
        <sumo-net-file value="udupi_manipal.net.xml"/>
    </input>

    <output>
        <output-file value="udupi_manipal.net.xml"/>
        <plain-output-prefix value="/home/sdeepakmallya/osm_to_sumo/udupi_manipal"/>
    </output>

    <processing>
        <geometry.min-radius.fix.railways value="false"/>
        <geometry.max-grade.fix value="false"/>
        <offset.disable-normalization value="true"/>
        <lefthand value="true"/>
    </processing>

    <junctions>
        <no-turnarounds value="true"/>
        <junctions.corner-detail value="5"/>
        <junctions.limit-turn-speed value="5.5"/>
        <rectangular-lane-cut value="false"/>
    </junctions>

    <pedestrian>
        <walkingareas value="false"/>
    </pedestrian>

    <report>
        <aggregate-warnings value="5"/>
    </report>

</configuration>
-->

<edges version="1.6" xmlns:xsi="http://www.w3.org/2001/XMLSchema-instance" xsi:noNamespaceSchemaLocation="http://sumo.dlr.de/xsd/edges_file.xsd">
    <edge id="-122612356#0" from="1369615162" to="1969594562" priority="4" type="highway.unclassified" numLanes="1" speed="13.89" shape="8675.74,56356.56 8665.26,56377.78 8643.93,56427.44" disallow="tram rail_urban rail rail_electric rail_fast ship"/>
    <edge id="-122612356#1" from="1369614871" to="1369615162" priority="4" type="highway.unclassified" numLanes="1" speed="13.89" shape="8788.98,55735.32 8787.73,55760.39 8784.85,55785.79 8779.75,55815.56 8775.72,55856.54 8770.98,55882.78 8755.44,55924.09 8744.31,55954.38 8732.85,55992.79 8731.11,56000.30 8730.55,56017.62 8730.01,56067.84 8731.32,56093.45 8733.43,56135.06 8727.08,56181.82 8717.95,56225.43 8706.83,56265.53 8689.43,56314.60 8679.30,56348.73 8675.74,56356.56" disallow="tram rail_urban rail rail_electric rail_fast ship"/>
    <edge id="-122612374#0" from="1969594553" to="1369615162" priority="4" type="highway.unclassified" numLanes="1" speed="13.89" shape="8744.95,56356.57 8709.24,56353.82 8675.74,56356.56" disallow="tram rail_urban rail rail_electric rail_fast ship"/>
    <edge id="-122612374#1" from="1369615209" to="1969594553" priority="4" type="highway.unclassified" numLanes="1" speed="13.89" shape="8903.73,56250.93 8896.76,56255.55 8897.23,56292.76 8902.01,56309.79 8900.31,56328.86 8895.68,56342.72 8888.25,56352.86 8867.17,56376.73 8848.20,56389.25 8820.90,56391.59 8809.85,56385.82 8791.13,56360.12 8744.95,56356.57" disallow="tram rail_urban rail rail_electric rail_fast ship"/>
    <edge id="-122612374#2" from="5776382945" to="1369615209" priority="4" type="highway.unclassified" numLanes="1" speed="13.89" shape="8999.69,56403.09 9001.32,56387.87 9016.85,56297.86 9015.40,56277.26 9014.09,56234.10 8947.98,56223.50 8944.98,56252.05 8903.73,56250.93" disallow="tram rail_urban rail rail_electric rail_fast ship"/>
    <edge id="-122612374#3" from="5776382949" to="5776382945" priority="4" type="highway.unclassified" numLanes="1" speed="13.89" shape="8985.88,56514.47 8991.96,56475.65 8999.69,56403.09" disallow="tram rail_urban rail rail_electric rail_fast ship"/>
    <edge id="-122612374#4" from="1369615164" to="5776382949" priority="4" type="highway.unclassified" numLanes="1" speed="13.89" disallow="tram rail_urban rail rail_electric rail_fast ship"/>
    <edge id="-128806510#0" from="1465589862" to="1422425853" priority="10" type="highway.tertiary" numLanes="1" speed="22.22" shape="6348.72,55352.45 6347.59,55311.30 6335.42,55276.40 6346.80,55202.93 6366.00,55141.05 6369.85,55113.06 6379.32,54904.21 6401.12,54845.47 6409.37,54593.26" disallow="tram rail_urban rail rail_electric rail_fast ship"/>
    <edge id="-128806510#1" from="1844245028" to="1465589862" priority="10" type="highway.tertiary" numLanes="1" speed="22.22" disallow="tram rail_urban rail rail_electric rail_fast ship"/>
    <edge id="-128806510#2" from="cluster_1422425932_3779281666_3779281669" to="1844245028" priority="10" type="highway.tertiary" numLanes="1" speed="22.22" shape="6351.21,55516.33 6349.37,55426.82" disallow="tram rail_urban rail rail_electric rail_fast ship"/>
    <edge id="-133023614#0" from="1463822846" to="2639836059" priority="3" type="highway.residential" numLanes="1" speed="13.89" shape="2101.24,56070.78 2112.06,56076.23 2351.44,56125.62 2400.25,56136.82" disallow="tram rail_urban rail rail_electric rail_fast ship"/>
    <edge id="-133023614#1" from="2639839572" to="1463822846" priority="3" type="highway.residential" numLanes="1" speed="13.89" shape="1916.78,55961.59 1923.43,55965.04 1934.50,55972.53 1938.87,55986.67 1940.07,56016.68 2021.13,56036.80 2089.42,56067.90 2101.24,56070.78" disallow="tram rail_urban rail rail_electric rail_fast ship"/>
    <edge id="-133024519#0" from="1463831847" to="cluster_1463832123_1463839102" priority="11" type="highway.secondary" numLanes="1" speed="27.78" shape="3051.90,54612.33 3099.08,54572.84" disallow="tram rail_urban rail rail_electric rail_fast ship"/>
    <edge id="-133024519#1" from="1467395836" to="1463831847" priority="11" type="highway.secondary" numLanes="1" speed="27.78" disallow="tram rail_urban rail rail_electric rail_fast ship"/>
    <edge id="-133024519#10" from="1799386135" to="1837719644" priority="11" type="highway.secondary" numLanes="1" speed="27.78" shape="2992.94,55190.49 3000.38,55150.38 3003.79,55113.08" disallow="tram rail_urban rail rail_electric rail_fast ship"/>
    <edge id="-133024519#11" from="1474397018" to="1799386135" priority="11" type="highway.secondary" numLanes="1" speed="27.78" disallow="tram rail_urban rail rail_electric rail_fast ship"/>
    <edge id="-133024519#12" from="1838490488" to="1474397018" priority="11" type="highway.secondary" numLanes="1" speed="27.78" disallow="tram rail_urban rail rail_electric rail_fast ship"/>
    <edge id="-133024519#13" from="1837719669" to="1838490488" priority="11" type="highway.secondary" numLanes="1" speed="27.78" disallow="tram rail_urban rail rail_electric rail_fast ship"/>
    <edge id="-133024519#14" from="cluster_1632433687_1967954015" to="1837719669" priority="11" type="highway.secondary" numLanes="1" speed="27.78" shape="2956.88,55536.78 2954.84,55527.28 2961.20,55482.33 2962.26,55416.22 2963.82,55373.53 2967.24,55323.88 2971.60,55293.83" disallow="tram rail_urban rail rail_electric rail_fast ship"/>
    <edge id="-133024519#2" from="cluster_1467395757_1525000953" to="1467395836" priority="11" type="highway.secondary" numLanes="1" speed="27.78" shape="3036.88,54688.31 3041.24,54663.49" disallow="tram rail_urban rail rail_electric rail_fast ship"/>
    <edge id="-133024519#4" from="cluster_1525000954_1837719680" to="cluster_1467395757_1525000953" priority="11" type="highway.secondary" numLanes="1" speed="27.78" shape="3024.45,54771.42 3034.50,54696.56" disallow="tram rail_urban rail rail_electric rail_fast ship"/>
    <edge id="-133024519#6" from="1467372146" to="cluster_1525000954_1837719680" priority="11" type="highway.secondary" numLanes="1" speed="27.78" shape="3024.32,54806.57 3024.35,54778.41" disallow="tram rail_urban rail rail_electric rail_fast ship"/>
    <edge id="-133024519#7" from="1837719656" to="1467372146" priority="11" type="highway.secondary" numLanes="1" speed="27.78" disallow="tram rail_urban rail rail_electric rail_fast ship"/>
    <edge id="-133024519#8" from="1837719699" to="1837719656" priority="11" type="highway.secondary" numLanes="1" speed="27.78" shape="3028.43,54958.81 3026.22,54916.91 3024.11,54831.16" disallow="tram rail_urban rail rail_electric rail_fast ship"/>
    <edge id="-133024519#9" from="1837719644" to="1837719699" priority="11" type="highway.secondary" numLanes="1" speed="27.78" shape="3003.79,55113.08 3013.05,55064.91 3019.02,55040.55 3026.47,55016.98 3028.43,54958.81" disallow="tram rail_urban rail rail_electric rail_fast ship"/>
    <edge id="-133026021#2" from="1463841957" to="cluster_1463841959_1967996580_1967996596" priority="10" type="highway.tertiary" numLanes="1" speed="22.22" shape="3984.83,54548.12 4094.66,54562.60" disallow="tram rail_urban rail rail_electric rail_fast ship"/>
    <edge id="-133026111#0" from="1524991069" to="1464203927" priority="10" type="highway.tertiary" numLanes="1" speed="22.22" shape="3682.81,54250.70 3664.27,54226.34 3620.24,54173.48 3616.61,54153.91" disallow="tram rail_urban rail rail_electric rail_fast ship"/>
    <edge id="-133026111#1" from="1463841949" to="1524991069" priority="10" type="highway.tertiary" numLanes="1" speed="22.22" shape="3790.36,54407.40 3779.70,54381.70 3760.68,54349.52 3706.91,54280.58 3682.81,54250.70" disallow="tram rail_urban rail rail_electric rail_fast ship"/>
    <edge id="-133026111#2" from="cluster_1837719665_1837719679" to="1463841949" priority="10" type="highway.tertiary" numLanes="1" speed="22.22" shape="3812.92,54441.30 3790.36,54407.40" disallow="tram rail_urban rail rail_electric rail_fast ship"/>
    <edge id="-133027656#0" from="1896134020" to="1463846629" priority="11" type="highway.secondary" numLanes="1" speed="27.78" shape="4342.71,54676.92 4354.74,54686.66 4380.91,54707.83 4397.76,54721.47 4406.23,54728.32 4417.39,54737.36 4428.55,54745.17" disallow="tram rail_urban rail rail_electric rail_fast ship"/>
    <edge id="-133027656#1" from="1968354005" to="1896134020" priority="11" type="highway.secondary" numLanes="1" speed="27.78" shape="4263.24,54613.57 4316.01,54655.32 4332.43,54668.60 4342.71,54676.92" disallow="tram rail_urban rail rail_electric rail_fast ship"/>
    <edge id="-133028023#1" from="1463850645" to="cluster_1967996582_6003068692" priority="10" type="highway.tertiary" numLanes="1" speed="22.22" shape="4243.79,54323.54 4124.16,54345.99" disallow="tram rail_urban rail rail_electric rail_fast ship"/>
    <edge id="-133055212#0" from="2467514397" to="459838183" priority="11" type="highway.secondary" numLanes="1" speed="27.78" shape="3935.25,58137.67 3936.52,58169.83 3934.80,58195.22 3929.90,58231.01 3924.42,58258.43 3908.49,58307.51 3884.57,58352.22 3860.91,58383.79 3849.29,58395.29 3813.07,58438.62 3784.94,58475.59 3773.99,58491.62 3759.36,58508.68" disallow="tram rail_urban rail rail_electric rail_fast ship"/>
    <edge id="-133055212#1" from="1464069965" to="2467514397" priority="11" type="highway.secondary" numLanes="1" speed="27.78" shape="3937.28,58050.34 3934.13,58111.82 3935.62,58133.18 3935.25,58137.67" disallow="tram rail_urban rail rail_electric rail_fast ship"/>
    <edge id="-133055212#2" from="1470920851" to="1464069965" priority="11" type="highway.secondary" numLanes="1" speed="27.78" shape="3963.71,57930.53 3941.38,58002.51 3937.28,58050.34" disallow="tram rail_urban rail rail_electric rail_fast ship"/>
    <edge id="-133055212#3" from="1470920845" to="1470920851" priority="11" type="highway.secondary" numLanes="1" speed="27.78" shape="4035.50,57765.78 4016.82,57820.31 3966.48,57921.61 3963.71,57930.53" disallow="tram rail_urban rail rail_electric rail_fast ship"/>
    <edge id="-133055212#4" from="1464069982" to="1470920845" priority="11" type="highway.secondary" numLanes="1" speed="27.78" shape="4092.19,57577.29 4066.96,57649.60 4035.50,57765.78" disallow="tram rail_urban rail rail_electric rail_fast ship"/>
    <edge id="-133055212#5" from="1465617980" to="1464069982" priority="11" type="highway.secondary" numLanes="1" speed="27.78" shape="4165.12,57051.97 4165.41,57053.89 4179.74,57152.28 4202.27,57307.81 4202.19,57346.69 4193.03,57367.56 4159.97,57416.08 4119.79,57505.37 4092.19,57577.29" disallow="tram rail_urban rail rail_electric rail_fast ship"/>
    <edge id="-133055212#6" from="1465612206" to="1465617980" priority="11" type="highway.secondary" numLanes="1" speed="27.78" shape="4233.54,56771.24 4197.78,56858.48 4172.47,56924.06 4166.62,56950.83 4160.34,56990.16 4165.12,57051.97" disallow="tram rail_urban rail rail_electric rail_fast ship"/>
    <edge id="-133055212#7" from="2539402888" to="1465612206" priority="11" type="highway.secondary" numLanes="1" speed="27.78" shape="4321.21,56282.88 4320.44,56300.05 4318.69,56419.02 4316.35,56485.38 4312.33,56550.98 4307.19,56585.23 4283.87,56645.69 4261.92,56702.69 4242.19,56748.47 4233.54,56771.24" disallow="tram rail_urban rail rail_electric rail_fast ship"/>
    <edge id="-133055212#8" from="1838490564" to="2539402888" priority="11" type="highway.secondary" numLanes="1" speed="27.78" disallow="tram rail_urban rail rail_electric rail_fast ship"/>
    <edge id="-133066399#0" from="1998419301" to="1463839060" priority="10" type="highway.tertiary" numLanes="1" speed="22.22" disallow="tram rail_urban rail rail_electric rail_fast ship"/>
    <edge id="-133066399#1" from="1837719645" to="1998419301" priority="10" type="highway.tertiary" numLanes="1" speed="22.22" disallow="tram rail_urban rail rail_electric rail_fast ship"/>
    <edge id="-133066401#0" from="1464203936" to="1464203927" priority="2" type="highway.living_street" numLanes="1" speed="2.78" shape="3610.42,54065.56 3606.04,54098.17 3616.61,54153.91" disallow="tram rail_urban rail rail_electric rail_fast ship"/>
    <edge id="-133066401#1" from="1464203925" to="1464203936" priority="2" type="highway.living_street" numLanes="1" speed="2.78" shape="3711.56,53978.18 3664.15,54013.60 3628.43,54039.88 3610.42,54065.56" disallow="tram rail_urban rail rail_electric rail_fast ship"/>
    <edge id="-133066428#0" from="1464205101" to="1464203992" priority="3" type="highway.residential" numLanes="1" speed="13.89" disallow="tram rail_urban rail rail_electric rail_fast ship"/>
    <edge id="-133066428#1" from="1464205099" to="1464205101" priority="3" type="highway.residential" numLanes="1" speed="13.89" disallow="tram rail_urban rail rail_electric rail_fast ship"/>
    <edge id="-133066429#0" from="1968354001" to="1464208696" priority="3" type="highway.residential" numLanes="1" speed="13.89" shape="3253.03,53728.49 3168.38,53650.58 3124.92,53610.58 3099.28,53585.45" disallow="tram rail_urban rail rail_electric rail_fast ship"/>
    <edge id="-133066429#1" from="1968353999" to="1968354001" priority="3" type="highway.residential" numLanes="1" speed="13.89" disallow="tram rail_urban rail rail_electric rail_fast ship"/>
    <edge id="-133066429#2" from="1464205098" to="1968353999" priority="3" type="highway.residential" numLanes="1" speed="13.89" disallow="tram rail_urban rail rail_electric rail_fast ship"/>
    <edge id="-133066633#0" from="1525000948" to="cluster_1463832123_1463839102" priority="10" type="highway.tertiary" numLanes="1" speed="22.22" shape="3290.48,54556.56 3261.47,54556.45 3195.77,54562.58 3180.15,54564.03 3131.26,54571.68 3103.96,54567.55" disallow="tram rail_urban rail rail_electric rail_fast ship"/>
    <edge id="-133066633#1" from="1464208754" to="1525000948" priority="10" type="highway.tertiary" numLanes="1" speed="22.22" shape="3480.63,54569.31 3411.11,54560.74 3345.34,54556.79 3290.48,54556.56" disallow="tram rail_urban rail rail_electric rail_fast ship"/>
    <edge id="-133066633#2" from="1464208756" to="1464208754" priority="10" type="highway.tertiary" numLanes="1" speed="22.22" disallow="tram rail_urban rail rail_electric rail_fast ship"/>
    <edge id="-133066633#3" from="1524991128" to="1464208756" priority="10" type="highway.tertiary" numLanes="1" speed="22.22" shape="3622.75,54588.00 3616.04,54586.83 3595.54,54583.23 3532.79,54576.37" disallow="tram rail_urban rail rail_electric rail_fast ship"/>
    <edge id="-133066649" from="1464209809" to="1464209803" priority="2" type="highway.living_street" numLanes="1" speed="2.78" shape="3977.82,54722.26 3979.18,54714.02 3981.85,54691.38 3981.74,54666.69" disallow="tram rail_urban rail rail_electric rail_fast ship"/>
    <edge id="-133066817" from="1464209809" to="1464214583" priority="2" type="highway.living_street" numLanes="1" speed="2.78" shape="3977.82,54722.26 3975.42,54732.49 3975.41,54736.21 3979.11,54739.65 3977.57,54746.92 3977.88,54765.82 3976.92,54781.56 3979.63,54786.91 3979.84,54795.99 3977.61,54803.94 3977.25,54817.64 3975.81,54825.43 3973.29,54835.99 3972.92,54843.04 3975.50,54853.38" disallow="tram rail_urban rail rail_electric rail_fast ship"/>
    <edge id="-133067442#0" from="1464230169" to="1464219860" priority="10" type="highway.tertiary" numLanes="1" speed="22.22" disallow="tram rail_urban rail rail_electric rail_fast ship"/>
    <edge id="-133067442#1" from="1464227329" to="1464230169" priority="10" type="highway.tertiary" numLanes="1" speed="22.22" disallow="tram rail_urban rail rail_electric rail_fast ship"/>
    <edge id="-133067458" from="1464230176" to="1463845571" priority="4" type="highway.unclassified" numLanes="1" speed="13.89" disallow="tram rail_urban rail rail_electric rail_fast ship"/>
    <edge id="-133067519" from="1464231899" to="1464230176" priority="4" type="highway.unclassified" numLanes="1" speed="13.89" disallow="tram rail_urban rail rail_electric rail_fast ship"/>
    <edge id="-133067552" from="cluster_1463847334_1464243482" to="cluster_1463845566_1967996622" priority="4" type="highway.unclassified" numLanes="1" speed="13.89" shape="4143.83,54979.08 4126.85,54971.47 4022.39,54960.67" disallow="tram rail_urban rail rail_electric rail_fast ship"/>
    <edge id="-133067812" from="1967996591" to="1463847336" priority="4" type="highway.unclassified" numLanes="1" speed="13.89" shape="4073.24,54811.29 4155.61,54828.14 4170.43,54831.01 4181.99,54842.77" disallow="tram rail_urban rail rail_electric rail_fast ship"/>
    <edge id="-133068247" from="1464240959" to="cluster_1464239322_1839490495" priority="4" type="highway.unclassified" numLanes="1" speed="13.89" shape="4228.74,55246.53 4317.31,55251.68" disallow="tram rail_urban rail rail_electric rail_fast ship"/>
    <edge id="-133068248#0" from="1464240987" to="1464219855" priority="4" type="highway.unclassified" numLanes="1" speed="13.89" disallow="tram rail_urban rail rail_electric rail_fast ship"/>
    <edge id="-133068248#1" from="1464240959" to="1464240987" priority="4" type="highway.unclassified" numLanes="1" speed="13.89" disallow="tram rail_urban rail rail_electric rail_fast ship"/>
    <edge id="-133068328#0" from="cluster_1464239307_1464243472" to="1464240987" priority="4" type="highway.unclassified" numLanes="1" speed="13.89" shape="4223.96,55137.88 4201.85,55244.21" disallow="tram rail_urban rail rail_electric rail_fast ship"/>
    <edge id="-133068528" from="cluster_1464239307_1464243472" to="1464243477" priority="4" type="highway.unclassified" numLanes="1" speed="13.89" shape="4223.96,55137.88 4153.57,55126.58 4122.05,55121.77" disallow="tram rail_urban rail rail_electric rail_fast ship"/>
    <edge id="-133068529" from="1464243478" to="cluster_1463847334_1464243482" priority="4" type="highway.unclassified" numLanes="1" speed="13.89" shape="4247.98,55013.86 4142.81,54991.64" disallow="tram rail_urban rail rail_electric rail_fast ship"/>
    <edge id="-133068688#0" from="1464244578" to="1464244534" priority="4" type="highway.unclassified" numLanes="1" speed="13.89" shape="4360.32,55054.21 4347.62,55051.79 4339.89,55042.43 4340.26,55032.19" disallow="tram rail_urban rail rail_electric rail_fast ship"/>
    <edge id="-133068688#1" from="1464244550" to="1464244578" priority="4" type="highway.unclassified" numLanes="1" speed="13.89" shape="4439.31,55039.99 4419.55,55036.55 4413.75,55035.40 4406.67,55037.65 4396.90,55045.31 4392.91,55052.75 4375.09,55057.05 4360.32,55054.21" disallow="tram rail_urban rail rail_electric rail_fast ship"/>
    <edge id="-133068688#2" from="1464244558" to="1464244550" priority="4" type="highway.unclassified" numLanes="1" speed="13.89" disallow="tram rail_urban rail rail_electric rail_fast ship"/>
    <edge id="-133068688#3" from="1839485240" to="1464244558" priority="4" type="highway.unclassified" numLanes="1" speed="13.89" shape="4467.42,54995.50 4471.81,55009.94 4470.37,55020.63 4466.32,55033.61 4455.42,55041.53" disallow="tram rail_urban rail rail_electric rail_fast ship"/>
    <edge id="-133068688#4" from="1463853040" to="1839485240" priority="4" type="highway.unclassified" numLanes="1" speed="13.89" shape="4389.83,54975.55 4427.34,54984.01 4441.88,54986.88 4453.78,54989.18 4463.09,54992.63 4467.42,54995.50" disallow="tram rail_urban rail rail_electric rail_fast ship"/>
    <edge id="-133068688#5" from="1464244528" to="1463853040" priority="4" type="highway.unclassified" numLanes="1" speed="13.89" shape="4353.39,54973.06 4364.30,54972.53 4377.96,54974.82 4389.83,54975.55" disallow="tram rail_urban rail rail_electric rail_fast ship"/>
    <edge id="-133068688#6" from="1464244534" to="1464244528" priority="4" type="highway.unclassified" numLanes="1" speed="13.89" shape="4340.26,55032.19 4347.88,54979.23 4353.39,54973.06" disallow="tram rail_urban rail rail_electric rail_fast ship"/>
    <edge id="-133069102#0" from="1969646366" to="1466622736" priority="4" type="highway.unclassified" numLanes="1" speed="13.89" shape="4560.92,55041.67 4560.90,55033.62 4556.92,55009.57 4551.81,54996.38" disallow="tram rail_urban rail rail_electric rail_fast ship"/>
    <edge id="-133069102#1" from="1466675419" to="1969646366" priority="4" type="highway.unclassified" numLanes="1" speed="13.89" shape="4555.81,55163.19 4559.60,55127.50 4561.01,55091.50 4560.92,55041.67" disallow="tram rail_urban rail rail_electric rail_fast ship"/>
    <edge id="-133069102#2" from="1464058657" to="1466675419" priority="4" type="highway.unclassified" numLanes="1" speed="13.89" shape="4388.15,55534.57 4415.38,55513.06 4425.25,55504.11 4427.36,55486.94 4422.60,55458.21 4414.51,55415.38 4406.92,55377.58 4403.41,55352.19 4408.24,55330.37 4419.55,55315.93 4444.23,55300.90 4466.57,55283.85 4499.67,55262.46 4518.23,55248.01 4541.25,55234.01 4562.44,55218.98 4565.62,55202.81 4566.10,55187.35 4557.38,55179.57 4555.81,55163.19" disallow="tram rail_urban rail rail_electric rail_fast ship"/>
    <edge id="-133069163#0" from="1464253668" to="1464224604" priority="10" type="highway.tertiary" numLanes="1" speed="22.22" disallow="tram rail_urban rail rail_electric rail_fast ship"/>
    <edge id="-133069163#1" from="1464219879" to="1464253668" priority="10" type="highway.tertiary" numLanes="1" speed="22.22" shape="4124.05,55278.58 4104.76,55276.69 4073.72,55281.88 4013.17,55305.35 3995.17,55307.99" disallow="tram rail_urban rail rail_electric rail_fast ship"/>
    <edge id="-133069164" from="1464253681" to="1464253659" priority="4" type="highway.unclassified" numLanes="1" speed="13.89" disallow="tram rail_urban rail rail_electric rail_fast ship"/>
    <edge id="-133069207" from="1464253668" to="1464227329" priority="4" type="highway.unclassified" numLanes="1" speed="13.89" shape="3995.17,55307.99 4007.07,55270.29 4009.42,55255.18 4007.54,55204.14 4002.02,55187.47" disallow="tram rail_urban rail rail_electric rail_fast ship"/>
    <edge id="-133117164" from="1464742786" to="1464754936" priority="4" type="highway.unclassified" numLanes="1" speed="13.89" shape="3697.76,58609.33 3687.51,58607.51 3677.64,58606.36 3664.83,58606.44 3651.50,58606.39 3638.11,58601.84 3620.67,58596.66 3602.70,58593.17 3578.88,58589.73 3559.12,58581.09 3517.84,58570.80 3464.42,58558.10 3391.77,58539.77 3381.89,58538.04 3365.04,58532.29 3358.64,58525.95 3339.47,58519.04 3324.93,58513.86 3304.63,58505.74 3286.59,58501.78 3275.00,58497.12 3266.83,58493.14 3259.28,58492.00 3249.41,58491.44 3238.94,58486.25 3228.49,58482.22 3221.51,58477.03 3216.86,58472.42 3208.72,58467.24 3201.78,58463.14 3191.87,58458.02 3181.99,58457.44 3175.63,58453.36 3169.21,58451.69 3161.08,58450.54 3155.26,58447.66 3150.03,58442.47" disallow="tram rail_urban rail rail_electric rail_fast ship"/>
    <edge id="-133182020#0" from="1466622736" to="1839485240" priority="3" type="highway.residential" numLanes="1" speed="13.89" shape="4551.81,54996.38 4531.09,54998.17 4485.93,54989.79 4467.42,54995.50" disallow="tram rail_urban rail rail_electric rail_fast ship"/>
    <edge id="-133182020#1" from="1465573763" to="1466622736" priority="3" type="highway.residential" numLanes="1" speed="13.89" shape="4564.44,54901.16 4569.92,54944.32 4562.71,54983.86 4551.81,54996.38" disallow="tram rail_urban rail rail_electric rail_fast ship"/>
    <edge id="-133182020#2" from="1839485218" to="1465573763" priority="3" type="highway.residential" numLanes="1" speed="13.89" shape="4573.39,54713.29 4577.28,54740.55 4558.99,54845.40 4557.35,54879.53 4559.42,54894.69 4564.44,54901.16" disallow="tram rail_urban rail rail_electric rail_fast ship"/>
    <edge id="-133182020#3" from="1839485241" to="1839485218" priority="3" type="highway.residential" numLanes="1" speed="13.89" disallow="tram rail_urban rail rail_electric rail_fast ship"/>
    <edge id="-133182020#4" from="1968363072" to="1839485241" priority="3" type="highway.residential" numLanes="1" speed="13.89" disallow="tram rail_urban rail rail_electric rail_fast ship"/>
    <edge id="-133182437" from="1969363934" to="1465573567" priority="3" type="highway.residential" numLanes="1" speed="13.89" shape="4722.98,54749.67 4791.37,54756.31 4828.74,54747.88 4855.76,54751.21 4854.01,54664.37 4872.23,54665.18 4878.41,54658.86 4877.79,54625.66 4867.63,54624.23 4862.98,54616.73 4862.05,54566.22 4863.79,54558.71 4942.04,54526.51" disallow="tram rail_urban rail rail_electric rail_fast ship"/>
    <edge id="-133182439#0" from="1969363934" to="1465573763" priority="5" type="highway.tertiary_link" numLanes="1" speed="22.22" shape="4722.98,54749.67 4723.62,54754.24 4731.77,54798.38 4727.16,54840.88 4709.64,54874.42 4697.96,54890.06 4639.29,54883.64 4626.09,54884.30 4564.44,54901.16" disallow="tram rail_urban rail rail_electric rail_fast ship"/>
    <edge id="-133182439#1" from="1465573571" to="1969363934" priority="5" type="highway.tertiary_link" numLanes="1" speed="22.22" shape="4723.33,54576.43 4726.49,54603.04 4722.28,54636.25 4720.53,54651.49 4717.61,54669.43 4718.12,54687.76 4719.13,54722.54 4722.98,54749.67" disallow="tram rail_urban rail rail_electric rail_fast ship"/>
    <edge id="-133182441#0" from="1968379482" to="1466695268" priority="10" type="highway.tertiary" numLanes="1" speed="22.22" shape="5123.70,52856.74 5128.14,52851.20 5139.59,52796.36 5163.97,52700.85" disallow="tram rail_urban rail rail_electric rail_fast ship"/>
    <edge id="-133182441#1" from="1466696013" to="1968379482" priority="10" type="highway.tertiary" numLanes="1" speed="22.22" shape="4852.74,53685.40 4863.57,53638.59 4867.61,53614.14 4865.83,53595.14 4857.76,53572.65 4851.16,53529.48 4847.05,53497.15 4840.38,53447.27 4852.73,53427.21 4893.20,53377.25 4945.93,53301.11 4969.41,53263.24 4987.27,53225.71 4995.30,53219.37 5022.06,53216.49 5047.12,53215.58 5047.61,53143.44 5068.80,53109.07 5082.79,53032.61 5092.71,52972.46 5112.24,52878.63 5119.86,52861.90 5123.70,52856.74" disallow="tram rail_urban rail rail_electric rail_fast ship"/>
    <edge id="-133182441#2" from="1466695997" to="1466696013" priority="10" type="highway.tertiary" numLanes="1" speed="22.22" shape="4802.13,53912.15 4805.64,53849.65 4811.76,53804.31 4828.84,53757.58 4852.74,53685.40" disallow="tram rail_urban rail rail_electric rail_fast ship"/>
    <edge id="-133182589" from="1465577016" to="1465577000" priority="4" type="highway.unclassified" numLanes="1" speed="13.89" shape="5540.89,55489.71 5714.87,55494.74 5815.96,55498.11" disallow="tram rail_urban rail rail_electric rail_fast ship"/>
    <edge id="-133182592#0" from="1465577016" to="1465577002" priority="4" type="highway.unclassified" numLanes="1" speed="13.89" shape="5540.89,55489.71 5493.84,55497.26 5364.11,55528.69" disallow="tram rail_urban rail rail_electric rail_fast ship"/>
    <edge id="-133182592#1" from="1465577007" to="1465577016" priority="4" type="highway.unclassified" numLanes="1" speed="13.89" disallow="tram rail_urban rail rail_electric rail_fast ship"/>
    <edge id="-133182592#2" from="1465573757" to="1465577007" priority="4" type="highway.unclassified" numLanes="1" speed="13.89" disallow="tram rail_urban rail rail_electric rail_fast ship"/>
    <edge id="-133182671#0" from="1465578630" to="1465578647" priority="5" type="highway.tertiary_link" numLanes="1" speed="22.22" shape="5819.81,55264.33 5802.86,55255.39 5703.29,55229.52 5593.78,55222.13 5553.97,55193.02" disallow="tram rail_urban rail rail_electric rail_fast ship"/>
    <edge id="-133182671#1" from="1465584838" to="1465578630" priority="5" type="highway.tertiary_link" numLanes="1" speed="22.22" shape="5817.83,55392.75 5818.75,55373.14 5814.93,55332.44 5819.81,55264.33" disallow="tram rail_urban rail rail_electric rail_fast ship"/>
    <edge id="-133182671#2" from="1465577000" to="1465584838" priority="5" type="highway.tertiary_link" numLanes="1" speed="22.22" disallow="tram rail_urban rail rail_electric rail_fast ship"/>
    <edge id="-133182671#3" from="1464084610" to="1465577000" priority="5" type="highway.tertiary_link" numLanes="1" speed="22.22" disallow="tram rail_urban rail rail_electric rail_fast ship"/>
    <edge id="-133182696#0" from="1465581722" to="1465581679" priority="4" type="highway.unclassified" numLanes="1" speed="13.89" disallow="tram rail_urban rail rail_electric rail_fast ship"/>
    <edge id="-133182696#1" from="1465581663" to="1465581722" priority="4" type="highway.unclassified" numLanes="1" speed="13.89" shape="5890.13,55299.47 5903.93,55297.91 5904.39,55282.89" disallow="tram rail_urban rail rail_electric rail_fast ship"/>
    <edge id="-133182697#0" from="1465581791" to="1465581741" priority="4" type="highway.unclassified" numLanes="1" speed="13.89" shape="5994.25,54792.11 6048.45,54799.71 6113.89,54803.72" disallow="tram rail_urban rail rail_electric rail_fast ship"/>