<?xml version="1.0" encoding="UTF-8"?>

<!-- generated on Sunday 24 May 2020 03:08:12 PM IST by Eclipse SUMO netedit Version 1.6.0
<configuration xmlns:xsi="http://www.w3.org/2001/XMLSchema-instance" xsi:noNamespaceSchemaLocation="http://sumo.dlr.de/xsd/netconvertConfiguration.xsd">

    <input>
        <sumo-net-file value="udupi_manipal.net.xml"/>
    </input>

    <output>
        <output-file value="udupi_manipal.net.xml"/>
        <plain-output-prefix value="/home/sdeepakmallya/osm_to_sumo/udupi_manipal"/>
    </output>

    <processing>
        <geometry.min-radius.fix.railways value="false"/>
        <geometry.max-grade.fix value="false"/>
        <offset.disable-normalization value="true"/>
        <lefthand value="true"/>
    </processing>

    <junctions>
        <no-turnarounds value="true"/>
        <junctions.corner-detail value="5"/>
        <junctions.limit-turn-speed value="5.5"/>
        <rectangular-lane-cut value="false"/>
    </junctions>

    <pedestrian>
        <walkingareas value="false"/>
    </pedestrian>

    <report>
        <aggregate-warnings value="5"/>
    </report>

</configuration>
-->

<connections version="1.6" xmlns:xsi="http://www.w3.org/2001/XMLSchema-instance" xsi:noNamespaceSchemaLocation="http://sumo.dlr.de/xsd/connections_file.xsd">
    <connection from="-122612356#0" to="374529112#1" fromLane="0" toLane="0"/>
    <connection from="-122612356#0" to="122612356#0" fromLane="0" toLane="0"/>

    <connection from="-122612356#1" to="-122612356#0" fromLane="0" toLane="0"/>
    <connection from="-122612356#1" to="122612374#0" fromLane="0" toLane="0"/>
    <connection from="-122612356#1" to="122612356#1" fromLane="0" toLane="0"/>

    <connection from="-122612374#0" to="122612356#1" fromLane="0" toLane="0"/>
    <connection from="-122612374#0" to="-122612356#0" fromLane="0" toLane="0"/>
    <connection from="-122612374#0" to="122612374#0" fromLane="0" toLane="0"/>

    <connection from="-122612374#1" to="-706734275#2" fromLane="0" toLane="0"/>
    <connection from="-122612374#1" to="-122612374#0" fromLane="0" toLane="0"/>
    <connection from="-122612374#1" to="122612374#1" fromLane="0" toLane="0"/>

    <connection from="-122612374#2" to="186263433#0" fromLane="0" toLane="0"/>
    <connection from="-122612374#2" to="-122612374#1" fromLane="0" toLane="0"/>
    <connection from="-122612374#2" to="122612374#2" fromLane="0" toLane="0"/>

    <connection from="-122612374#3" to="-122612374#2" fromLane="0" toLane="0"/>
    <connection from="-122612374#3" to="609872584" fromLane="0" toLane="0"/>
    <connection from="-122612374#3" to="122612374#3" fromLane="0" toLane="0"/>

    <connection from="-122612374#4" to="-122612374#3" fromLane="0" toLane="0"/>
    <connection from="-122612374#4" to="-609872584" fromLane="0" toLane="0"/>
    <connection from="-122612374#4" to="122612374#4" fromLane="0" toLane="0"/>

    <connection from="-128806510#0" to="128806512" fromLane="0" toLane="0"/>

    <connection from="-128806510#1" to="-128806510#0" fromLane="0" toLane="0"/>
    <connection from="-128806510#1" to="-133182878#3" fromLane="0" toLane="0"/>
    <connection from="-128806510#1" to="128806510#1" fromLane="0" toLane="0"/>

    <connection from="-128806510#2" to="-128806510#1" fromLane="0" toLane="0"/>
    <connection from="-128806510#2" to="-186250482#1" fromLane="0" toLane="0"/>
    <connection from="-128806510#2" to="128806510#2" fromLane="0" toLane="0"/>

    <connection from="-133023614#0" to="133023614#0" fromLane="0" toLane="0"/>

    <connection from="-133023614#1" to="-133023614#0" fromLane="0" toLane="0"/>
    <connection from="-133023614#1" to="258650940#0" fromLane="0" toLane="0"/>
    <connection from="-133023614#1" to="133023614#1" fromLane="0" toLane="0"/>

    <connection from="-133024519#0" to="133066633#0" fromLane="0" toLane="0"/>
    <connection from="-133024519#0" to="-133895342#11" fromLane="0" toLane="0"/>
    <connection from="-133024519#0" to="185967226#0" fromLane="0" toLane="0"/>
    <connection from="-133024519#0" to="133024519#0" fromLane="0" toLane="0"/>

    <connection from="-133024519#1" to="-133024519#0" fromLane="0" toLane="0"/>
    <connection from="-133024519#1" to="-189014385" fromLane="0" toLane="0"/>
    <connection from="-133024519#1" to="133024519#1" fromLane="0" toLane="0"/>

    <connection from="-133024519#10" to="-133024519#9" fromLane="0" toLane="0"/>
    <connection from="-133024519#10" to="-133299141" fromLane="0" toLane="0"/>
    <connection from="-133024519#10" to="133024519#10" fromLane="0" toLane="0"/>

    <connection from="-133024519#11" to="-172937719" fromLane="0" toLane="0"/>
    <connection from="-133024519#11" to="-133024519#10" fromLane="0" toLane="0"/>
    <connection from="-133024519#11" to="133024519#11" fromLane="0" toLane="0"/>

    <connection from="-133024519#12" to="-133024519#11" fromLane="0" toLane="0"/>
    <connection from="-133024519#12" to="133298367" fromLane="0" toLane="0"/>
    <connection from="-133024519#12" to="133024519#12" fromLane="0" toLane="0"/>

    <connection from="-133024519#13" to="-133024519#12" fromLane="0" toLane="0"/>
    <connection from="-133024519#13" to="-173019942#1" fromLane="0" toLane="0"/>
    <connection from="-133024519#13" to="133024519#13" fromLane="0" toLane="0"/>

    <connection from="-133024519#14" to="172937715" fromLane="0" toLane="0"/>
    <connection from="-133024519#14" to="-133024519#13" fromLane="0" toLane="0"/>
    <connection from="-133024519#14" to="133024519#14" fromLane="0" toLane="0"/>

    <connection from="-133024519#2" to="133299154" fromLane="0" toLane="0"/>
    <connection from="-133024519#2" to="-133024519#1" fromLane="0" toLane="0"/>
    <connection from="-133024519#2" to="133024519#2" fromLane="0" toLane="0"/>

    <connection from="-133024519#4" to="133299136" fromLane="0" toLane="0"/>
    <connection from="-133024519#4" to="-133024519#2" fromLane="0" toLane="0"/>
    <connection from="-133024519#4" to="-133299157" fromLane="0" toLane="0"/>
    <connection from="-133024519#4" to="133024519#4" fromLane="0" toLane="0"/>

    <connection from="-133024519#6" to="-133299150#1" fromLane="0" toLane="0"/>
    <connection from="-133024519#6" to="-133024519#4" fromLane="0" toLane="0"/>
    <connection from="-133024519#6" to="-133298198#1" fromLane="0" toLane="0"/>
    <connection from="-133024519#6" to="133024519#6" fromLane="0" toLane="0"/>

    <connection from="-133024519#7" to="-133298366" fromLane="0" toLane="0"/>
    <connection from="-133024519#7" to="-133024519#6" fromLane="0" toLane="0"/>
    <connection from="-133024519#7" to="133024519#7" fromLane="0" toLane="0"/>

    <connection from="-133024519#8" to="-133298196#1" fromLane="0" toLane="0"/>
    <connection from="-133024519#8" to="-133024519#7" fromLane="0" toLane="0"/>
    <connection from="-133024519#8" to="-133298159#2" fromLane="0" toLane="0"/>
    <connection from="-133024519#8" to="133024519#8" fromLane="0" toLane="0"/>

    <connection from="-133024519#9" to="-133024519#8" fromLane="0" toLane="0"/>
    <connection from="-133024519#9" to="-172937702" fromLane="0" toLane="0"/>
    <connection from="-133024519#9" to="133024519#9" fromLane="0" toLane="0"/>

    <connection from="-133026021#2" to="186093435#1" fromLane="0" toLane="0"/>
    <connection from="-133026021#2" to="186093437#3" fromLane="0" toLane="1"/>
    <connection from="-133026021#2" to="133250335" fromLane="0" toLane="0"/>
    <connection from="-133026021#2" to="133026021#2" fromLane="0" toLane="0"/>

    <connection from="-133026111#0" to="-133895342#4" fromLane="0" toLane="0"/>
    <connection from="-133026111#0" to="133066401#0" fromLane="0" toLane="0"/>
    <connection from="-133026111#0" to="133895342#5" fromLane="0" toLane="0"/>
    <connection from="-133026111#0" to="133026111#0" fromLane="0" toLane="0"/>

    <connection from="-133026111#1" to="-133026111#0" fromLane="0" toLane="0"/>
    <connection from="-133026111#1" to="150311474#0" fromLane="0" toLane="0"/>
    <connection from="-133026111#1" to="133026111#1" fromLane="0" toLane="0"/>

    <connection from="-133026111#2" to="-133026111#1" fromLane="0" toLane="0"/>
    <connection from="-133026111#2" to="150311473#0" fromLane="0" toLane="0"/>
    <connection from="-133026111#2" to="133026111#2" fromLane="0" toLane="0"/>

    <connection from="-133027656#0" to="171867800#2" fromLane="0" toLane="0"/>
    <connection from="-133027656#0" to="-171867800#1" fromLane="0" toLane="1"/>
    <connection from="-133027656#0" to="133027656#0" fromLane="0" toLane="0"/>

    <connection from="-133027656#1" to="-133027656#0" fromLane="0" toLane="0"/>
    <connection from="-133027656#1" to="173007567#0" fromLane="0" toLane="0"/>
    <connection from="-133027656#1" to="133027656#1" fromLane="0" toLane="0"/>

    <connection from="-133028023#1" to="186093437#6" fromLane="0" toLane="0"/>
    <connection from="-133028023#1" to="186093430#11" fromLane="0" toLane="1"/>
    <connection from="-133028023#1" to="133028023#1" fromLane="0" toLane="0"/>

    <connection from="-133055212#0" to="-158493084#0" fromLane="0" toLane="0"/>
    <connection from="-133055212#0" to="158493084#1" fromLane="0" toLane="0"/>
    <connection from="-133055212#0" to="133055212#0" fromLane="0" toLane="0"/>

    <connection from="-133055212#1" to="-133055212#0" fromLane="0" toLane="0"/>
    <connection from="-133055212#1" to="-706109201#2" fromLane="0" toLane="0"/>
    <connection from="-133055212#1" to="133055212#1" fromLane="0" toLane="0"/>

    <connection from="-133055212#2" to="-133642566" fromLane="0" toLane="0"/>
    <connection from="-133055212#2" to="-133055212#1" fromLane="0" toLane="0"/>
    <connection from="-133055212#2" to="133055212#2" fromLane="0" toLane="0"/>

    <connection from="-133055212#3" to="-133055212#2" fromLane="0" toLane="0"/>
    <connection from="-133055212#3" to="-133640818" fromLane="0" toLane="0"/>
    <connection from="-133055212#3" to="133055212#3" fromLane="0" toLane="0"/>

    <connection from="-133055212#4" to="-133640840" fromLane="0" toLane="0"/>
    <connection from="-133055212#4" to="-133055212#3" fromLane="0" toLane="0"/>
    <connection from="-133055212#4" to="133055212#4" fromLane="0" toLane="0"/>

    <connection from="-133055212#5" to="246990150" fromLane="0" toLane="0"/>
    <connection from="-133055212#5" to="-133055212#4" fromLane="0" toLane="0"/>
    <connection from="-133055212#5" to="133055212#5" fromLane="0" toLane="0"/>

    <connection from="-133055212#6" to="-133055212#5" fromLane="0" toLane="0"/>
    <connection from="-133055212#6" to="133183983" fromLane="0" toLane="0"/>
    <connection from="-133055212#6" to="133055212#6" fromLane="0" toLane="0"/>

    <connection from="-133055212#7" to="-133055212#6" fromLane="0" toLane="0"/>
    <connection from="-133055212#7" to="133183756#0" fromLane="0" toLane="0"/>
    <connection from="-133055212#7" to="133055212#7" fromLane="0" toLane="0"/>

    <connection from="-133055212#8" to="-133055212#7" fromLane="0" toLane="0"/>
    <connection from="-133055212#8" to="246990146" fromLane="0" toLane="0"/>
    <connection from="-133055212#8" to="133055212#8" fromLane="0" toLane="0"/>

    <connection from="-133066399#0" to="133895342#11" fromLane="0" toLane="0"/>
    <connection from="-133066399#0" to="-133895342#10" fromLane="0" toLane="0"/>
    <connection from="-133066399#0" to="133066399#0" fromLane="0" toLane="0"/>

    <connection from="-133066399#1" to="-189189049" fromLane="0" toLane="0"/>
    <connection from="-133066399#1" to="-133066399#0" fromLane="0" toLane="0"/>
    <connection from="-133066399#1" to="133066399#1" fromLane="0" toLane="0"/>

    <connection from="-133066401#0" to="133895342#5" fromLane="0" toLane="0"/>
    <connection from="-133066401#0" to="133026111#0" fromLane="0" toLane="0"/>
    <connection from="-133066401#0" to="-133895342#4" fromLane="0" toLane="0"/>
    <connection from="-133066401#0" to="133066401#0" fromLane="0" toLane="0"/>

    <connection from="-133066401#1" to="-133295317" fromLane="0" toLane="0"/>
    <connection from="-133066401#1" to="-133066401#0" fromLane="0" toLane="0"/>
    <connection from="-133066401#1" to="133066401#1" fromLane="0" toLane="0"/>

    <connection from="-133066428#0" to="186090419#2" fromLane="0" toLane="0"/>
    <connection from="-133066428#0" to="-186090419#1" fromLane="0" toLane="0"/>
    <connection from="-133066428#0" to="133066428#0" fromLane="0" toLane="0"/>

    <connection from="-133066428#1" to="-186137613#1" fromLane="0" toLane="0"/>
    <connection from="-133066428#1" to="-133066428#0" fromLane="0" toLane="0"/>
    <connection from="-133066428#1" to="133066428#1" fromLane="0" toLane="0"/>

    <connection from="-133066429#0" to="186090419#4" fromLane="0" toLane="0"/>
    <connection from="-133066429#0" to="-233263449#1" fromLane="0" toLane="0"/>
    <connection from="-133066429#0" to="-186090419#3" fromLane="0" toLane="0"/>
    <connection from="-133066429#0" to="133066429#0" fromLane="0" toLane="0"/>

    <connection from="-133066429#1" to="-133066429#0" fromLane="0" toLane="0"/>
    <connection from="-133066429#1" to="-186137614" fromLane="0" toLane="0"/>
    <connection from="-133066429#1" to="133066429#1" fromLane="0" toLane="0"/>

    <connection from="-133066429#2" to="-133066429#1" fromLane="0" toLane="0"/>
    <connection from="-133066429#2" to="133295592" fromLane="0" toLane="0"/>
    <connection from="-133066429#2" to="133066429#2" fromLane="0" toLane="0"/>

    <connection from="-133066633#0" to="-133895342#11" fromLane="0" toLane="0"/>
    <connection from="-133066633#0" to="185967226#0" fromLane="0" toLane="0"/>
    <connection from="-133066633#0" to="133024519#0" fromLane="0" toLane="0"/>
    <connection from="-133066633#0" to="133066633#0" fromLane="0" toLane="0"/>

    <connection from="-133066633#1" to="-139152517" fromLane="0" toLane="0"/>
    <connection from="-133066633#1" to="-133066633#0" fromLane="0" toLane="0"/>
    <connection from="-133066633#1" to="133066633#1" fromLane="0" toLane="0"/>

    <connection from="-133066633#2" to="-133066633#1" fromLane="0" toLane="0"/>
    <connection from="-133066633#2" to="-133299134#3" fromLane="0" toLane="0"/>
    <connection from="-133066633#2" to="133066633#2" fromLane="0" toLane="0"/>

    <connection from="-133066633#3" to="-150311474#2" fromLane="0" toLane="0"/>
    <connection from="-133066633#3" to="-133066633#2" fromLane="0" toLane="0"/>
    <connection from="-133066633#3" to="133066633#3" fromLane="0" toLane="0"/>

    <connection from="-133066649" to="133066649" fromLane="0" toLane="0"/>

    <connection from="-133066817" to="-186249877#1" fromLane="0" toLane="0"/>
    <connection from="-133066817" to="186249877#2" fromLane="0" toLane="0"/>
    <connection from="-133066817" to="133066817" fromLane="0" toLane="0"/>

    <connection from="-133067442#0" to="171867799#9" fromLane="0" toLane="0"/>
    <connection from="-133067442#0" to="-171867799#8" fromLane="0" toLane="1"/>
    <connection from="-133067442#0" to="133067442#0" fromLane="0" toLane="0"/>

    <connection from="-133067442#1" to="-133067442#0" fromLane="0" toLane="0"/>
    <connection from="-133067442#1" to="-186092325" fromLane="0" toLane="0"/>
    <connection from="-133067442#1" to="133067442#1" fromLane="0" toLane="0"/>

    <connection from="-133067458" to="236724276#1" fromLane="0" toLane="0"/>
    <connection from="-133067458" to="134023572#0" fromLane="0" toLane="0"/>
    <connection from="-133067458" to="-236724276#0" fromLane="0" toLane="1"/>
    <connection from="-133067458" to="133067458" fromLane="0" toLane="0"/>

    <connection from="-133067519" to="-133067458" fromLane="0" toLane="0"/>
    <connection from="-133067519" to="186092325" fromLane="0" toLane="0"/>
    <connection from="-133067519" to="133067519" fromLane="0" toLane="0"/>

    <connection from="-133067552" to="186093437#1" fromLane="0" toLane="0"/>
    <connection from="-133067552" to="133067552" fromLane="0" toLane="0"/>

    <connection from="-133067812" to="171867799#3" fromLane="0" toLane="0"/>
    <connection from="-133067812" to="-171867799#2" fromLane="0" toLane="1"/>
    <connection from="-133067812" to="133067812" fromLane="0" toLane="0"/>

    <connection from="-133068247" to="133243033#5" fromLane="0" toLane="0"/>
    <connection from="-133068247" to="-133248243" fromLane="0" toLane="0"/>
    <connection from="-133068247" to="-133243033#3" fromLane="0" toLane="0"/>
    <connection from="-133068247" to="133068247" fromLane="0" toLane="0"/>

    <connection from="-133068248#0" to="-171867799#9" fromLane="0" toLane="0"/>
    <connection from="-133068248#0" to="171867799#10" fromLane="0" toLane="1"/>
    <connection from="-133068248#0" to="133068248#0" fromLane="0" toLane="0"/>

    <connection from="-133068248#1" to="133068328#0" fromLane="0" toLane="0"/>
    <connection from="-133068248#1" to="-133068248#0" fromLane="0" toLane="0"/>
    <connection from="-133068248#1" to="133068248#1" fromLane="0" toLane="0"/>

    <connection from="-133068328#0" to="-133068248#0" fromLane="0" toLane="0"/>
    <connection from="-133068328#0" to="133068248#1" fromLane="0" toLane="0"/>
    <connection from="-133068328#0" to="133068328#0" fromLane="0" toLane="0"/>

    <connection from="-133068528" to="-171867799#7" fromLane="0" toLane="0"/>
    <connection from="-133068528" to="171867799#8" fromLane="0" toLane="1"/>
    <connection from="-133068528" to="133068528" fromLane="0" toLane="0"/>

    <connection from="-133068529" to="-171867799#4" fromLane="0" toLane="0"/>
    <connection from="-133068529" to="-133067552" fromLane="0" toLane="0"/>
    <connection from="-133068529" to="171867799#6" fromLane="0" toLane="1"/>
    <connection from="-133068529" to="133068529" fromLane="0" toLane="0"/>

    <connection from="-133068688#0" to="-133068688#6" fromLane="0" toLane="0"/>
    <connection from="-133068688#0" to="-133242920#1" fromLane="0" toLane="0"/>
    <connection from="-133068688#0" to="133068688#0" fromLane="0" toLane="0"/>

    <connection from="-133068688#1" to="-133068688#0" fromLane="0" toLane="0"/>
    <connection from="-133068688#1" to="133243033#0" fromLane="0" toLane="0"/>
    <connection from="-133068688#1" to="133068688#1" fromLane="0" toLane="0"/>

    <connection from="-133068688#2" to="-133068688#1" fromLane="0" toLane="0"/>
    <connection from="-133068688#2" to="-546664798" fromLane="0" toLane="0"/>
    <connection from="-133068688#2" to="133068688#2" fromLane="0" toLane="0"/>

    <connection from="-133068688#3" to="-133068688#2" fromLane="0" toLane="0"/>
    <connection from="-133068688#3" to="546664798" fromLane="0" toLane="0"/>
    <connection from="-133068688#3" to="133068688#3" fromLane="0" toLane="0"/>

    <connection from="-133068688#4" to="-133068688#3" fromLane="0" toLane="0"/>
    <connection from="-133068688#4" to="133182020#0" fromLane="0" toLane="0"/>
    <connection from="-133068688#4" to="133068688#4" fromLane="0" toLane="0"/>

    <connection from="-133068688#5" to="-133068688#4" fromLane="0" toLane="0"/>
    <connection from="-133068688#5" to="133068688#5" fromLane="0" toLane="0"/>

    <connection from="-133068688#6" to="-133068688#5" fromLane="0" toLane="0"/>
    <connection from="-133068688#6" to="133242947" fromLane="0" toLane="0"/>
    <connection from="-133068688#6" to="133068688#6" fromLane="0" toLane="0"/>

    <connection from="-133069102#0" to="133182020#1" fromLane="0" toLane="0"/>
    <connection from="-133069102#0" to="-133182020#0" fromLane="0" toLane="0"/>
    <connection from="-133069102#0" to="133069102#0" fromLane="0" toLane="0"/>

    <connection from="-133069102#1" to="186284213" fromLane="0" toLane="0"/>
    <connection from="-133069102#1" to="-133069102#0" fromLane="0" toLane="0"/>
    <connection from="-133069102#1" to="133069102#1" fromLane="0" toLane="0"/>

    <connection from="-133069102#2" to="-133069102#1" fromLane="0" toLane="0"/>
    <connection from="-133069102#2" to="-133248177#1" fromLane="0" toLane="0"/>
    <connection from="-133069102#2" to="133069102#2" fromLane="0" toLane="0"/>

    <connection from="-133069163#0" to="186092319" fromLane="0" toLane="0"/>
    <connection from="-133069163#0" to="133069163#0" fromLane="0" toLane="0"/>

    <connection from="-133069163#1" to="-133069207" fromLane="0" toLane="0"/>
    <connection from="-133069163#1" to="-133069163#0" fromLane="0" toLane="0"/>
    <connection from="-133069163#1" to="133069163#1" fromLane="0" toLane="0"/>

    <connection from="-133069164" to="-186091636#0" fromLane="0" toLane="0"/>
    <connection from="-133069164" to="186091636#1" fromLane="0" toLane="1"/>
    <connection from="-133069164" to="133069164" fromLane="0" toLane="0"/>

    <connection from="-133069207" to="-133067442#1" fromLane="0" toLane="0"/>
    <connection from="-133069207" to="186092323" fromLane="0" toLane="0"/>
    <connection from="-133069207" to="133069207" fromLane="0" toLane="0"/>

    <connection from="-133117164" to="133117164" fromLane="0" toLane="0"/>

    <connection from="-133182020#0" to="133068688#4" fromLane="0" toLane="0"/>
    <connection from="-133182020#0" to="-133068688#3" fromLane="0" toLane="0"/>
    <connection from="-133182020#0" to="133182020#0" fromLane="0" toLane="0"/>

    <connection from="-133182020#1" to="-133182020#0" fromLane="0" toLane="0"/>
    <connection from="-133182020#1" to="133069102#0" fromLane="0" toLane="0"/>
    <connection from="-133182020#1" to="133182020#1" fromLane="0" toLane="0"/>

    <connection from="-133182020#2" to="-133182020#1" fromLane="0" toLane="0"/>
    <connection from="-133182020#2" to="133182439#0" fromLane="0" toLane="0"/>
    <connection from="-133182020#2" to="133182020#2" fromLane="0" toLane="0"/>

    <connection from="-133182020#3" to="-173117045" fromLane="0" toLane="0"/>
    <connection from="-133182020#3" to="-133182020#2" fromLane="0" toLane="0"/>
    <connection from="-133182020#3" to="133182020#3" fromLane="0" toLane="0"/>

    <connection from="-133182020#4" to="-133182020#3" fromLane="0" toLane="0"/>
    <connection from="-133182020#4" to="173117049" fromLane="0" toLane="0"/>
    <connection from="-133182020#4" to="133182020#4" fromLane="0" toLane="0"/>

    <connection from="-133182437" to="186138826#5" fromLane="0" toLane="0"/>
    <connection from="-133182437" to="-186138826#4" fromLane="0" toLane="0"/>
    <connection from="-133182437" to="133182437" fromLane="0" toLane="0"/>

    <connection from="-133182439#0" to="133182020#2" fromLane="0" toLane="0"/>
    <connection from="-133182439#0" to="-133182020#1" fromLane="0" toLane="0"/>
    <connection from="-133182439#0" to="133182439#0" fromLane="0" toLane="0"/>

    <connection from="-133182439#1" to="-133182439#0" fromLane="0" toLane="0"/>
    <connection from="-133182439#1" to="-133182437" fromLane="0" toLane="0"/>
    <connection from="-133182439#1" to="133182439#1" fromLane="0" toLane="0"/>

    <connection from="-133182441#0" to="-150311481#0" fromLane="0" toLane="0"/>
    <connection from="-133182441#0" to="150311481#1" fromLane="0" toLane="0"/>
    <connection from="-133182441#0" to="133182441#0" fromLane="0" toLane="0"/>

    <connection from="-133182441#1" to="-133182441#0" fromLane="0" toLane="0"/>
    <connection from="-133182441#1" to="-322289563" fromLane="0" toLane="0"/>
    <connection from="-133182441#1" to="133182441#1" fromLane="0" toLane="0"/>

    <connection from="-133182441#2" to="-133753725#1" fromLane="0" toLane="0"/>
    <connection from="-133182441#2" to="-133182441#1" fromLane="0" toLane="0"/>
    <connection from="-133182441#2" to="133182441#2" fromLane="0" toLane="0"/>

    <connection from="-133182589" to="133182671#3" fromLane="0" toLane="0"/>
    <connection from="-133182589" to="-133182671#2" fromLane="0" toLane="0"/>
    <connection from="-133182589" to="133182589" fromLane="0" toLane="0"/>

    <connection from="-133182592#0" to="-186138826#6" fromLane="0" toLane="0"/>
    <connection from="-133182592#0" to="186138826#7" fromLane="0" toLane="0"/>
    <connection from="-133182592#0" to="133182592#0" fromLane="0" toLane="0"/>

    <connection from="-133182592#1" to="-133182592#0" fromLane="0" toLane="0"/>
    <connection from="-133182592#1" to="-133182589" fromLane="0" toLane="0"/>
    <connection from="-133182592#1" to="133182592#1" fromLane="0" toLane="0"/>

    <connection from="-133182592#2" to="-133182592#1" fromLane="0" toLane="0"/>
    <connection from="-133182592#2" to="133182817" fromLane="0" toLane="0"/>
    <connection from="-133182592#2" to="133182592#2" fromLane="0" toLane="0"/>

    <connection from="-133182671#0" to="133182671#0" fromLane="0" toLane="0"/>

    <connection from="-133182671#1" to="-186251127" fromLane="0" toLane="0"/>
    <connection from="-133182671#1" to="-133182671#0" fromLane="0" toLane="0"/>
    <connection from="-133182671#1" to="133182671#1" fromLane="0" toLane="0"/>

    <connection from="-133182671#2" to="-133182671#1" fromLane="0" toLane="0"/>
    <connection from="-133182671#2" to="-133182817" fromLane="0" toLane="0"/>
    <connection from="-133182671#2" to="133182671#2" fromLane="0" toLane="0"/>

    <connection from="-133182671#3" to="-133182671#2" fromLane="0" toLane="0"/>
    <connection from="-133182671#3" to="133182589" fromLane="0" toLane="0"/>
    <connection from="-133182671#3" to="133182671#3" fromLane="0" toLane="0"/>

    <connection from="-133182696#0" to="-133182818" fromLane="0" toLane="0"/>

    <connection from="-133182696#1" to="-133182697#1" fromLane="0" toLane="0"/>
    <connection from="-133182696#1" to="-133182696#0" fromLane="0" toLane="0"/>
    <connection from="-133182696#1" to="133182696#1" fromLane="0" toLane="0"/>

    <connection from="-133182697#0" to="133182697#0" fromLane="0" toLane="0"/>

    <connection from="-133182697#1" to="-133182697#0" fromLane="0" toLane="0"/>
    <connection from="-133182697#1" to="133753726#0" fromLane="0" toLane="0"/>
    <connection from="-133182697#1" to="133182697#1" fromLane="0" toLane="0"/>

    <connection from="-133182817" to="133182592#2" fromLane="0" toLane="0"/>
    <connection from="-133182817" to="-133182592#1" fromLane="0" toLane="0"/>
    <connection from="-133182817" to="133182817" fromLane="0" toLane="0"/>

    <connection from="-133182818" to="133182818" fromLane="0" toLane="0"/>

    <connection from="-133182878#0" to="-133182696#1" fromLane="0" toLane="0"/>
    <connection from="-133182878#0" to="186251127" fromLane="0" toLane="0"/>
    <connection from="-133182878#0" to="133182878#0" fromLane="0" toLane="0"/>

    <connection from="-133182878#2" to="246989554#0" fromLane="0" toLane="0"/>
    <connection from="-133182878#2" to="-133182878#0" fromLane="0" toLane="0"/>
    <connection from="-133182878#2" to="-173655936" fromLane="0" toLane="0"/>
    <connection from="-133182878#2" to="133182878#2" fromLane="0" toLane="0"/>

    <connection from="-133182878#3" to="-133182878#2" fromLane="0" toLane="0"/>
    <connection from="-133182878#3" to="-173655940#1" fromLane="0" toLane="0"/>
    <connection from="-133182878#3" to="133182878#3" fromLane="0" toLane="0"/>

    <connection from="-133183151#0" to="374532417#12" fromLane="0" toLane="0"/>
    <connection from="-133183151#0" to="133183151#0" fromLane="0" toLane="0"/>

    <connection from="-133183151#1" to="133183493#0" fromLane="0" toLane="0"/>
    <connection from="-133183151#1" to="-133183151#0" fromLane="0" toLane="0"/>
    <connection from="-133183151#1" to="133183151#1" fromLane="0" toLane="0"/>

    <connection from="-133183493#0" to="-133183151#0" fromLane="0" toLane="0"/>
    <connection from="-133183493#0" to="133183151#1" fromLane="0" toLane="0"/>
    <connection from="-133183493#0" to="133183493#0" fromLane="0" toLane="0"/>

    <connection from="-133183493#1" to="-133183493#0" fromLane="0" toLane="0"/>
    <connection from="-133183493#1" to="-133183494#5" fromLane="0" toLane="0"/>
    <connection from="-133183493#1" to="133183493#1" fromLane="0" toLane="0"/>

    <connection from="-133183494#0" to="-133183756#3" fromLane="0" toLane="0"/>
    <connection from="-133183494#0" to="133183756#4" fromLane="0" toLane="0"/>
    <connection from="-133183494#0" to="133183494#0" fromLane="0" toLane="0"/>

    <connection from="-133183494#1" to="133183759#0" fromLane="0" toLane="0"/>
    <connection from="-133183494#1" to="-133183757#2" fromLane="0" toLane="0"/>
    <connection from="-133183494#1" to="-133183494#0" fromLane="0" toLane="0"/>
    <connection from="-133183494#1" to="133183494#1" fromLane="0" toLane="0"/>

    <connection from="-133183494#2" to="-133183494#1" fromLane="0" toLane="0"/>
    <connection from="-133183494#2" to="133183758" fromLane="0" toLane="0"/>
    <connection from="-133183494#2" to="133183494#2" fromLane="0" toLane="0"/>

    <connection from="-133183494#3" to="186251029" fromLane="0" toLane="0"/>
    <connection from="-133183494#3" to="-133183759#2" fromLane="0" toLane="0"/>
    <connection from="-133183494#3" to="-133183494#2" fromLane="0" toLane="0"/>
    <connection from="-133183494#3" to="133183494#3" fromLane="0" toLane="0"/>

    <connection from="-133183494#4" to="-133183494#3" fromLane="0" toLane="0"/>
    <connection from="-133183494#4" to="-133183758" fromLane="0" toLane="0"/>
    <connection from="-133183494#4" to="133183494#4" fromLane="0" toLane="0"/>

    <connection from="-133183494#5" to="-133183494#4" fromLane="0" toLane="0"/>
    <connection from="-133183494#5" to="-186251031" fromLane="0" toLane="0"/>
    <connection from="-133183494#5" to="133183494#5" fromLane="0" toLane="0"/>

    <connection from="-133183756#0" to="133055212#7" fromLane="0" toLane="0"/>
    <connection from="-133183756#0" to="-133055212#6" fromLane="0" toLane="0"/>
    <connection from="-133183756#0" to="133183756#0" fromLane="0" toLane="0"/>

    <connection from="-133183756#1" to="-133183756#0" fromLane="0" toLane="0"/>
    <connection from="-133183756#1" to="-133183983" fromLane="0" toLane="0"/>