<?xml version="1.0" encoding="UTF-8"?>

<!-- generated on Sunday 24 May 2020 03:08:12 PM IST by Eclipse SUMO netedit Version 1.6.0
<configuration xmlns:xsi="http://www.w3.org/2001/XMLSchema-instance" xsi:noNamespaceSchemaLocation="http://sumo.dlr.de/xsd/netconvertConfiguration.xsd">

    <input>
        <sumo-net-file value="udupi_manipal.net.xml"/>
    </input>

    <output>
        <output-file value="udupi_manipal.net.xml"/>
        <plain-output-prefix value="/home/sdeepakmallya/osm_to_sumo/udupi_manipal"/>
    </output>

    <processing>
        <geometry.min-radius.fix.railways value="false"/>
        <geometry.max-grade.fix value="false"/>
        <offset.disable-normalization value="true"/>
        <lefthand value="true"/>
    </processing>

    <junctions>
        <no-turnarounds value="true"/>
        <junctions.corner-detail value="5"/>
        <junctions.limit-turn-speed value="5.5"/>
        <rectangular-lane-cut value="false"/>
    </junctions>

    <pedestrian>
        <walkingareas value="false"/>
    </pedestrian>

    <report>
        <aggregate-warnings value="5"/>
    </report>

</configuration>
-->

<nodes version="1.6" xmlns:xsi="http://www.w3.org/2001/XMLSchema-instance" xsi:noNamespaceSchemaLocation="http://sumo.dlr.de/xsd/nodes_file.xsd">
    <location netOffset="-468729.73,-1419820.20" convBoundary="0.00,0.00,18111.38,60348.49" origBoundary="74.711232,12.843380,74.891943,13.389001" projParameter="+proj=utm +zone=43 +ellps=WGS84 +datum=WGS84 +units=m +no_defs"/>

    <node id="1369614871" x="8788.98" y="55735.32" type="priority"/>
    <node id="1369615162" x="8675.74" y="56356.56" type="priority"/>
    <node id="1369615164" x="8979.89" y="56552.73" type="priority"/>
    <node id="1369615209" x="8903.73" y="56250.93" type="priority"/>
    <node id="1422425791" x="6417.37" y="54397.44" type="priority"/>
    <node id="1422425853" x="6409.37" y="54593.26" type="priority"/>
    <node id="1463822836" x="2240.04" y="55806.15" type="priority"/>
    <node id="1463822846" x="2101.24" y="56070.78" type="priority"/>
    <node id="1463831847" x="3051.90" y="54612.33" type="priority"/>
    <node id="1463836742" x="2742.65" y="54609.47" type="priority"/>
    <node id="1463836764" x="2697.30" y="55096.33" type="priority"/>
    <node id="1463836802" x="2717.69" y="54801.99" type="priority"/>
    <node id="1463839060" x="3118.69" y="54553.72" type="priority"/>
    <node id="1463839068" x="3551.77" y="54216.26" type="priority"/>
    <node id="1463840420" x="3422.84" y="54322.53" type="priority"/>
    <node id="1463841110" x="3554.25" y="54352.99" type="priority"/>
    <node id="1463841940" x="3932.77" y="54486.05" type="priority"/>
    <node id="1463841949" x="3790.36" y="54407.40" type="priority"/>
    <node id="1463841957" x="3984.83" y="54548.12" type="priority"/>
    <node id="1463845550" x="3879.94" y="55153.03" type="priority"/>
    <node id="1463845555" x="3925.19" y="55096.25" type="priority"/>
    <node id="1463845571" x="3958.71" y="55038.66" type="priority"/>
    <node id="1463846629" x="4428.55" y="54745.17" type="priority"/>
    <node id="1463847328" x="4197.18" y="54832.33" type="priority"/>
    <node id="1463847336" x="4181.99" y="54842.77" type="priority"/>
    <node id="1463849183" x="4350.87" y="54401.42" type="priority"/>
    <node id="1463849184" x="4354.77" y="54430.50" type="priority"/>
    <node id="1463849205" x="4315.83" y="54416.11" type="priority"/>
    <node id="1463850630" x="4255.05" y="54431.82" type="priority"/>
    <node id="1463850645" x="4243.79" y="54323.54" type="priority"/>
    <node id="1463851428" x="4287.42" y="54287.49" type="priority"/>
    <node id="1463853040" x="4389.83" y="54975.55" type="priority"/>
    <node id="1464057146" x="3848.65" y="55279.56" type="priority"/>
    <node id="1464058657" x="4388.15" y="55534.57" type="priority"/>
    <node id="1464058663" x="3619.25" y="55327.70" type="priority"/>
    <node id="1464069965" x="3937.28" y="58050.34" type="priority"/>
    <node id="1464069982" x="4092.19" y="57577.29" type="priority"/>
    <node id="1464073427" x="6565.77" y="57854.73" type="priority"/>
    <node id="1464073430" x="6241.87" y="57979.06" type="priority"/>
    <node id="1464073449" x="6485.88" y="57827.67" type="priority"/>
    <node id="1464083476" x="5390.19" y="55614.28" type="priority"/>
    <node id="1464084610" x="5817.49" y="55570.62" type="priority"/>
    <node id="1464088395" x="7195.83" y="55826.02" type="priority"/>
    <node id="1464088413" x="7673.95" y="55866.78" type="priority"/>
    <node id="1464088452" x="6608.71" y="55572.12" type="priority"/>
    <node id="1464088459" x="7978.73" y="55811.46" type="priority"/>
    <node id="1464094939" x="10262.09" y="56598.31" type="priority"/>
    <node id="1464095038" x="9459.67" y="56612.98" type="priority"/>
    <node id="1464112043" x="7464.92" y="57480.75" type="priority"/>
    <node id="1464112044" x="6852.82" y="57608.13" type="priority"/>
    <node id="1464112055" x="7867.07" y="56361.81" type="priority"/>
    <node id="1464112087" x="7886.47" y="56062.66" type="priority"/>
    <node id="1464112123" x="8001.59" y="56988.34" type="priority"/>
    <node id="1464203925" x="3711.56" y="53978.18" type="priority"/>
    <node id="1464203927" x="3616.61" y="54153.91" type="priority"/>
    <node id="1464203936" x="3610.42" y="54065.56" type="priority"/>
    <node id="1464203939" x="3525.70" y="53839.41" type="priority"/>
    <node id="1464203992" x="3093.07" y="54002.78" type="priority"/>
    <node id="1464205098" x="3344.48" y="53812.66" type="priority"/>
    <node id="1464205099" x="3155.26" y="54012.36" type="priority"/>
    <node id="1464205101" x="3120.75" y="54002.64" type="priority"/>
    <node id="1464205103" x="3238.32" y="53997.26" type="priority"/>
    <node id="1464208696" x="3099.28" y="53585.45" type="priority"/>
    <node id="1464208754" x="3480.63" y="54569.31" type="priority"/>
    <node id="1464208756" x="3532.79" y="54576.37" type="priority"/>
    <node id="1464209796" x="4075.39" y="54744.34" type="priority"/>
    <node id="1464209803" x="3981.74" y="54666.69" type="priority"/>
    <node id="1464209809" x="3977.82" y="54722.26" type="right_before_left"/>
    <node id="1464214571" x="3596.68" y="54786.01" type="priority"/>
    <node id="1464214583" x="3975.50" y="54853.38" type="priority"/>
    <node id="1464214669" x="4050.82" y="54852.18" type="priority"/>
    <node id="1464219855" x="4130.26" y="55242.78" type="priority"/>
    <node id="1464219860" x="4122.18" y="55188.50" type="priority"/>
    <node id="1464219879" x="4124.05" y="55278.58" type="priority"/>
    <node id="1464224604" x="3939.11" y="55298.23" type="priority"/>
    <node id="1464227324" x="3941.59" y="55172.10" type="priority"/>
    <node id="1464227326" x="3916.19" y="55163.26" type="priority"/>
    <node id="1464227329" x="4002.02" y="55187.47" type="priority"/>
    <node id="1464230169" x="4046.06" y="55187.26" type="priority"/>
    <node id="1464230176" x="4049.48" y="55050.99" type="priority"/>
    <node id="1464231899" x="4136.14" y="55056.94" type="priority"/>
    <node id="1464239327" x="4238.57" y="55077.92" type="priority"/>
    <node id="1464240959" x="4228.74" y="55246.53" type="priority"/>
    <node id="1464240985" x="4266.55" y="55498.22" type="priority"/>
    <node id="1464240987" x="4201.85" y="55244.21" type="priority"/>
    <node id="1464243477" x="4122.05" y="55121.77" type="priority"/>
    <node id="1464243478" x="4247.98" y="55013.86" type="priority"/>
    <node id="1464244528" x="4353.39" y="54973.06" type="priority"/>
    <node id="1464244534" x="4340.26" y="55032.19" type="priority"/>
    <node id="1464244550" x="4439.31" y="55039.99" type="priority"/>
    <node id="1464244558" x="4455.42" y="55041.53" type="priority"/>
    <node id="1464244578" x="4360.32" y="55054.21" type="priority"/>
    <node id="1464253659" x="4125.03" y="55349.32" type="priority"/>
    <node id="1464253668" x="3995.17" y="55307.99" type="priority"/>
    <node id="1464253681" x="4230.49" y="55367.98" type="priority"/>
    <node id="1464742786" x="3697.76" y="58609.33" type="priority"/>
    <node id="1464754936" x="3150.03" y="58442.47" type="priority"/>
    <node id="1464769051" x="1769.94" y="58486.93" type="priority"/>
    <node id="1465562365" x="4886.84" y="54368.20" type="priority"/>
    <node id="1465573567" x="4942.04" y="54526.51" type="priority"/>
    <node id="1465573571" x="4723.33" y="54576.43" type="priority"/>
    <node id="1465573757" x="5346.17" y="55467.96" type="priority"/>
    <node id="1465573763" x="4564.44" y="54901.16" type="priority"/>
    <node id="1465577000" x="5815.96" y="55498.11" type="priority"/>
    <node id="1465577002" x="5364.11" y="55528.69" type="priority"/>
    <node id="1465577007" x="5511.40" y="55417.58" type="priority"/>
    <node id="1465577016" x="5540.89" y="55489.71" type="priority"/>
    <node id="1465578630" x="5819.81" y="55264.33" type="priority"/>
    <node id="1465578647" x="5553.97" y="55193.02" type="priority"/>
    <node id="1465581663" x="5890.13" y="55299.47" type="priority"/>
    <node id="1465581679" x="5816.85" y="55211.24" type="priority"/>
    <node id="1465581722" x="5904.39" y="55282.89" type="priority"/>
    <node id="1465581741" x="6113.89" y="54803.72" type="priority"/>
    <node id="1465581791" x="5994.25" y="54792.11" type="priority"/>
    <node id="1465584815" x="5824.31" y="55116.56" type="priority"/>
    <node id="1465584838" x="5817.83" y="55392.75" type="priority"/>
    <node id="1465589862" x="6348.72" y="55352.45" type="priority"/>
    <node id="1465606296" x="5496.31" y="56847.50" type="priority"/>
    <node id="1465606301" x="5442.26" y="56847.06" type="priority"/>
    <node id="1465606307" x="5747.25" y="55730.29" type="priority"/>
    <node id="1465606321" x="5504.91" y="55771.42" type="priority"/>
    <node id="1465606328" x="5469.83" y="56652.84" type="priority"/>
    <node id="1465606336" x="5667.79" y="55741.81" type="priority"/>
    <node id="1465612186" x="4866.05" y="56866.15" type="priority"/>
    <node id="1465612206" x="4233.54" y="56771.24" type="priority"/>
    <node id="1465612221" x="5552.26" y="56844.97" type="priority"/>
    <node id="1465612264" x="5501.72" y="57046.21" type="priority"/>
    <node id="1465617969" x="4862.06" y="56934.27" type="priority"/>
    <node id="1465617980" x="4165.12" y="57051.97" type="priority"/>
    <node id="1465618003" x="4819.90" y="57043.86" type="priority"/>
    <node id="1465618009" x="4640.12" y="56862.69" type="priority"/>
    <node id="1465618035" x="4797.80" y="56932.50" type="priority"/>
    <node id="1465618071" x="4788.97" y="57045.16" type="priority"/>
    <node id="1465618115" x="4852.62" y="57037.79" type="priority"/>
    <node id="1465618146" x="4490.87" y="56854.80" type="priority"/>
    <node id="1465618157" x="4707.53" y="56930.96" type="priority"/>
    <node id="1465618159" x="4636.54" y="56931.88" type="priority"/>
    <node id="1465618164" x="4828.72" y="56932.23" type="priority"/>
    <node id="1465618192" x="4676.16" y="56929.25" type="priority"/>
    <node id="1465659601" x="2866.73" y="59214.38" type="priority"/>
    <node id="1465659626" x="2752.03" y="58768.30" type="priority"/>
    <node id="1465659629" x="2807.76" y="58409.43" type="priority"/>
    <node id="1465659638" x="2905.43" y="58424.31" type="priority"/>
    <node id="1465659653" x="2894.01" y="58488.41" type="priority"/>
    <node id="1465659663" x="2745.29" y="58586.10" type="priority"/>
    <node id="1465659665" x="2762.65" y="58527.21" type="priority"/>
    <node id="1465670011" x="2383.25" y="57983.69" type="priority"/>
    <node id="1465670116" x="3064.18" y="58012.60" type="priority"/>
    <node id="1465671986" x="3690.05" y="58033.79" type="priority"/>
    <node id="1465672006" x="3437.67" y="58008.46" type="priority"/>
    <node id="1465672666" x="3651.70" y="58029.04" type="priority"/>
    <node id="1465672678" x="3560.14" y="58199.38" type="priority"/>
    <node id="1465675498" x="3395.61" y="57782.04" type="priority"/>
    <node id="1465675500" x="3402.27" y="57929.16" type="priority"/>
    <node id="1465675507" x="3387.13" y="58000.71" type="priority"/>
    <node id="1465675519" x="3297.00" y="57915.67" type="priority"/>
    <node id="1465683105" x="3534.95" y="57478.16" type="priority"/>
    <node id="1465683121" x="3122.48" y="57664.50" type="priority"/>
    <node id="1465683167" x="3444.94" y="57242.54" type="priority"/>
    <node id="1465690662" x="3041.42" y="57633.12" type="priority"/>
    <node id="1465690691" x="3126.30" y="57442.57" type="right_before_left"/>
    <node id="1465690695" x="3075.27" y="57646.28" type="priority"/>
    <node id="1465690756" x="3148.10" y="57444.56" type="right_before_left"/>
    <node id="1465690758" x="3001.88" y="57589.59" type="priority"/>
    <node id="1465699740" x="2325.04" y="56942.40" type="priority"/>
    <node id="1465699768" x="2937.40" y="57040.74" type="priority"/>
    <node id="1465699804" x="3324.41" y="57326.64" type="priority"/>
    <node id="1465699948" x="2326.77" y="57000.76" type="priority"/>
    <node id="1465700030" x="2954.17" y="56963.67" type="priority"/>
    <node id="1466594902" x="4416.12" y="54847.50" type="priority"/>
    <node id="1466594911" x="4305.50" y="54842.13" type="priority"/>
    <node id="1466597403" x="4302.84" y="55024.91" type="priority"/>
    <node id="1466597404" x="4315.80" y="54920.07" type="priority"/>
    <node id="1466622736" x="4551.81" y="54996.38" type="priority"/>
    <node id="1466675419" x="4555.81" y="55163.19" type="priority"/>
    <node id="1466675459" x="4392.08" y="55152.89" type="priority"/>
    <node id="1466675467" x="4320.76" y="55225.84" type="priority"/>
    <node id="1466675471" x="4408.45" y="55259.95" type="priority"/>
    <node id="1466676644" x="4238.81" y="54961.11" type="priority"/>
    <node id="1466676652" x="4147.72" y="54939.11" type="priority"/>
    <node id="1466677381" x="4042.40" y="54253.97" type="priority"/>
    <node id="1466678807" x="4155.86" y="54223.46" type="priority"/>
    <node id="1466679072" x="4028.13" y="54035.78" type="priority"/>
    <node id="1466679112" x="4031.90" y="53731.55" type="priority"/>
    <node id="1466679323" x="3964.00" y="52217.79" type="priority"/>
    <node id="1466695228" x="4961.70" y="54282.99" type="priority"/>
    <node id="1466695246" x="5012.91" y="54208.93" type="priority"/>
    <node id="1466695268" x="5163.97" y="52700.85" type="priority"/>
    <node id="1466695997" x="4802.13" y="53912.15" type="priority"/>
    <node id="1466696013" x="4852.74" y="53685.40" type="priority"/>
    <node id="1466734952" x="4714.00" y="53899.23" type="priority"/>
    <node id="1466735304" x="4356.71" y="54057.30" type="priority"/>
    <node id="1466735306" x="4540.78" y="53877.96" type="priority"/>
    <node id="1466735327" x="4635.38" y="53284.05" type="priority"/>
    <node id="1466735358" x="4565.34" y="53677.72" type="priority"/>
    <node id="1466735927" x="4029.25" y="53780.73" type="priority"/>
    <node id="1466735936" x="3943.11" y="54130.47" type="priority"/>
    <node id="1466735965" x="3716.36" y="53750.15" type="priority"/>
    <node id="1466735969" x="3992.91" y="54089.43" type="priority"/>
    <node id="1466737450" x="3894.10" y="53891.52" type="priority"/>
    <node id="1466737457" x="3824.41" y="53911.26" type="priority"/>
    <node id="1466737460" x="3890.67" y="53765.81" type="priority"/>
    <node id="1466737461" x="3746.41" y="53714.81" type="priority"/>
    <node id="1466737468" x="3773.62" y="53686.99" type="priority"/>
    <node id="1466737477" x="3641.05" y="53505.35" type="priority"/>
    <node id="1466737478" x="3868.26" y="53821.40" type="priority"/>
    <node id="1466737482" x="3961.71" y="53936.93" type="priority"/>
    <node id="1466738058" x="3988.11" y="54303.60" type="priority"/>
    <node id="1466738063" x="3888.37" y="54366.50" type="priority"/>
    <node id="1466738486" x="3773.48" y="54033.95" type="priority"/>
    <node id="1466739012" x="3742.07" y="54056.88" type="priority"/>
    <node id="1466739020" x="3921.97" y="54345.31" type="priority"/>
    <node id="1467269515" x="3398.61" y="53861.51" type="priority"/>
    <node id="1467276170" x="3227.66" y="53772.70" type="priority"/>
    <node id="1467276181" x="3193.94" y="53940.65" type="priority"/>
    <node id="1467277351" x="3173.22" y="53892.92" type="priority"/>
    <node id="1467280459" x="3152.60" y="54210.32" type="priority"/>
    <node id="1467298487" x="5301.75" y="55686.53" type="priority"/>
    <node id="1467364674" x="2834.53" y="54814.73" type="priority"/>
    <node id="1467364678" x="2845.18" y="54691.81" type="priority"/>
    <node id="1467365942" x="2898.36" y="54706.18" type="priority"/>
    <node id="1467372146" x="3024.32" y="54806.57" type="priority"/>
    <node id="1467372151" x="3073.99" y="54809.10" type="priority"/>
    <node id="1467372166" x="2877.19" y="54894.66" type="priority"/>
    <node id="1467395780" x="2969.78" y="54678.98" type="priority"/>
    <node id="1467395783" x="3239.63" y="54965.00" type="priority"/>
    <node id="1467395799" x="2546.94" y="54787.05" type="priority"/>
    <node id="1467395803" x="3226.31" y="55006.57" type="priority"/>
    <node id="1467395821" x="3473.10" y="54895.54" type="priority"/>
    <node id="1467395836" x="3041.24" y="54663.49" type="priority"/>
    <node id="1467395848" x="3107.33" y="54684.31" type="priority"/>
    <node id="1467395851" x="2597.90" y="54721.18" type="priority"/>
    <node id="1467395854" x="2953.38" y="55108.80" type="priority"/>
    <node id="1467395884" x="2828.43" y="55054.33" type="priority"/>
    <node id="1467395912" x="3151.43" y="54798.70" type="priority"/>
    <node id="1467395916" x="3058.34" y="54761.97" type="priority"/>
    <node id="1467395929" x="3133.08" y="54733.06" type="priority"/>
    <node id="1467395934" x="3051.58" y="54779.52" type="priority"/>
    <node id="1467395944" x="3243.66" y="54932.67" type="priority"/>
    <node id="1470674049" x="3527.25" y="55551.16" type="priority"/>
    <node id="1470674075" x="3602.69" y="56615.47" type="priority"/>
    <node id="1470674104" x="3224.43" y="56516.58" type="priority"/>
    <node id="1470674106" x="3769.45" y="55440.73" type="priority"/>
    <node id="1470674109" x="3539.65" y="55482.74" type="priority"/>
    <node id="1470677256" x="3563.34" y="57052.75" type="priority"/>
    <node id="1470677261" x="3741.65" y="57034.10" type="priority"/>
    <node id="1470677267" x="3584.55" y="56776.25" type="priority"/>
    <node id="1470854771" x="3381.25" y="55624.90" type="priority"/>
    <node id="1470854777" x="3487.57" y="55633.45" type="priority"/>
    <node id="1470854795" x="3448.88" y="55574.32" type="priority"/>
    <node id="1470854796" x="3549.28" y="55604.28" type="priority"/>
    <node id="1470899741" x="6564.85" y="54563.84" type="priority"/>
    <node id="1470899771" x="6630.26" y="55179.55" type="priority"/>
    <node id="1470899773" x="6838.76" y="55209.55" type="priority"/>
    <node id="1470899787" x="6597.63" y="55386.44" type="priority"/>
    <node id="1470899789" x="6682.35" y="55384.93" type="priority"/>
    <node id="1470899792" x="6754.34" y="55395.64" type="priority"/>
    <node id="1470899796" x="6794.92" y="55405.09" type="priority"/>
    <node id="1470899825" x="6558.91" y="55551.99" type="priority"/>
    <node id="1470899831" x="6660.87" y="55605.05" type="priority"/>
    <node id="1470899837" x="6524.78" y="55659.35" type="priority"/>
    <node id="1470899838" x="6730.25" y="55670.57" type="priority"/>
    <node id="1470899839" x="6515.44" y="55686.57" type="priority"/>
    <node id="1470902987" x="7222.31" y="55447.63" type="priority"/>
    <node id="1470902994" x="7074.30" y="55489.98" type="priority"/>
    <node id="1470903002" x="7220.93" y="55520.66" type="priority"/>
    <node id="1470903006" x="7066.54" y="55548.54" type="priority"/>
    <node id="1470903019" x="7056.19" y="55607.03" type="priority"/>
    <node id="1470903027" x="7226.80" y="55634.49" type="priority"/>
    <node id="1470903035" x="6989.82" y="55717.05" type="priority"/>
    <node id="1470903037" x="7034.98" y="55724.54" type="priority"/>
    <node id="1470903044" x="7211.01" y="55757.48" type="priority"/>
    <node id="1470920720" x="3612.41" y="57251.14" type="priority"/>
    <node id="1470920726" x="3613.95" y="57280.58" type="priority"/>
    <node id="1470920729" x="3702.62" y="57281.06" type="priority"/>
    <node id="1470920731" x="3615.68" y="57311.13" type="priority"/>
    <node id="1470920735" x="3703.89" y="57311.47" type="priority"/>
    <node id="1470920744" x="3620.89" y="57354.66" type="priority"/>
    <node id="1470920745" x="3709.55" y="57352.89" type="priority"/>
    <node id="1470920761" x="3712.53" y="57399.83" type="priority"/>
    <node id="1470920766" x="3628.59" y="57430.94" type="priority"/>
    <node id="1470920768" x="3716.62" y="57432.16" type="priority"/>
    <node id="1470920771" x="3718.83" y="57460.70" type="priority"/>
    <node id="1470920775" x="3631.18" y="57460.75" type="priority"/>
    <node id="1470920791" x="3723.90" y="57523.66" type="priority"/>
    <node id="1470920794" x="3725.17" y="57539.28" type="priority"/>
    <node id="1470920800" x="3726.22" y="57554.33" type="priority"/>
    <node id="1470920811" x="3642.50" y="57570.87" type="priority"/>
    <node id="1470920817" x="3564.49" y="57578.97" type="priority"/>
    <node id="1470920820" x="3802.77" y="57585.28" type="priority"/>
    <node id="1470920833" x="3802.44" y="57743.53" type="priority"/>
    <node id="1470920845" x="4035.50" y="57765.78" type="priority"/>
    <node id="1470920851" x="3963.71" y="57930.53" type="priority"/>
    <node id="1470922363" x="2761.66" y="55928.85" type="priority"/>
    <node id="1470922392" x="2778.84" y="55972.55" type="priority"/>
    <node id="1470925373" x="3516.99" y="57210.36" type="priority"/>
    <node id="1470925442" x="3525.62" y="57293.22" type="priority"/>
    <node id="1472157126" x="5523.35" y="53669.80" type="priority"/>
    <node id="1472157134" x="5595.10" y="53697.25" type="priority"/>
    <node id="1472157138" x="5501.39" y="53712.09" type="priority"/>
    <node id="1472157159" x="6043.40" y="53845.27" type="priority"/>
    <node id="1472157171" x="6382.02" y="53852.86" type="priority"/>
    <node id="1472157175" x="5736.74" y="53924.72" type="priority"/>
    <node id="1472157179" x="6059.41" y="53926.39" type="priority"/>
    <node id="1472168303" x="7912.14" y="54219.72" type="priority"/>
    <node id="1472168308" x="8138.33" y="54270.13" type="priority"/>
    <node id="1472168323" x="8462.39" y="54347.68" type="priority"/>
    <node id="1472168342" x="8485.99" y="54525.96" type="priority"/>
    <node id="1472168352" x="8119.87" y="54632.23" type="priority"/>
    <node id="1472168358" x="8232.95" y="54680.95" type="priority"/>
    <node id="1472168360" x="8393.46" y="54686.28" type="priority"/>
    <node id="1472168372" x="8430.34" y="54720.89" type="priority"/>
    <node id="1472168377" x="8306.95" y="54735.02" type="priority"/>
    <node id="1472168381" x="8340.00" y="54760.51" type="priority"/>
    <node id="1472168395" x="8489.14" y="54777.24" type="priority"/>
    <node id="1472168396" x="8383.59" y="54794.15" type="priority"/>
    <node id="1472168413" x="8272.11" y="54853.62" type="priority"/>
    <node id="1472168417" x="8497.18" y="54859.37" type="priority"/>
    <node id="1472168424" x="8348.82" y="54889.18" type="right_before_left"/>
    <node id="1472168426" x="8236.29" y="54891.25" type="priority"/>
    <node id="1472168433" x="8423.52" y="54899.01" type="priority"/>
    <node id="1472168437" x="9316.84" y="54924.99" type="priority"/>
    <node id="1472168439" x="8335.99" y="54934.14" type="right_before_left"/>
    <node id="1472168451" x="8505.98" y="54959.49" type="priority"/>
    <node id="1472168460" x="8512.63" y="55019.15" type="priority"/>
    <node id="1472168464" x="8526.02" y="55109.79" type="priority"/>
    <node id="1472168471" x="8602.06" y="55228.38" type="priority"/>
    <node id="1472168513" x="8054.22" y="55901.26" type="priority"/>
    <node id="1472168514" x="7980.63" y="55993.91" type="priority"/>
    <node id="1472168515" x="7977.68" y="56011.48" type="priority"/>
    <node id="1472168618" x="8171.94" y="56743.59" type="priority"/>
    <node id="1472168625" x="8077.95" y="56834.33" type="priority"/>
    <node id="1472168627" x="8043.09" y="56873.78" type="priority"/>
    <node id="1472168629" x="8046.81" y="56932.95" type="priority"/>
    <node id="1472168640" x="8120.65" y="56966.12" type="priority"/>
    <node id="1472168643" x="8076.62" y="56983.98" type="priority"/>
    <node id="1472168647" x="8192.99" y="57019.03" type="priority"/>
    <node id="1472168653" x="8142.03" y="57031.73" type="priority"/>
    <node id="1472168663" x="8128.15" y="57145.25" type="priority"/>
    <node id="1472168670" x="8184.87" y="57170.32" type="priority"/>
    <node id="1472168672" x="8139.61" y="57183.74" type="priority"/>
    <node id="1472168676" x="8241.65" y="57266.73" type="priority"/>
    <node id="1472168678" x="8171.51" y="57288.68" type="priority"/>
    <node id="1473235370" x="10073.79" y="57225.18" type="priority"/>
    <node id="1473239211" x="9635.93" y="58673.47" type="priority"/>
    <node id="1474359033" x="3893.43" y="54860.52" type="priority"/>
    <node id="1474359066" x="3922.77" y="54971.01" type="priority"/>
    <node id="1474359068" x="3997.35" y="54975.13" type="priority"/>
    <node id="1474359080" x="3661.54" y="55049.41" type="priority"/>
    <node id="1474359085" x="3735.78" y="55017.22" type="priority"/>
    <node id="1474359111" x="3918.73" y="55033.39" type="priority"/>
    <node id="1474359158" x="4527.68" y="55402.45" type="priority"/>
    <node id="1474359178" x="4550.42" y="55542.15" type="priority"/>
    <node id="1474396730" x="2069.13" y="54458.35" type="priority"/>
    <node id="1474396841" x="2731.10" y="54678.13" type="priority"/>
    <node id="1474396864" x="2620.55" y="54806.22" type="priority"/>
    <node id="1474396891" x="2547.92" y="54906.07" type="priority"/>
    <node id="1474396895" x="2612.99" y="54915.78" type="priority"/>
    <node id="1474396904" x="2708.74" y="54919.88" type="priority"/>
    <node id="1474396936" x="2859.39" y="54946.96" type="priority"/>
    <node id="1474396975" x="2602.27" y="55028.49" type="priority"/>
    <node id="1474397008" x="2685.64" y="55214.96" type="priority"/>
    <node id="1474397018" x="2985.64" y="55223.84" type="priority"/>
    <node id="1488488203" x="7870.09" y="54343.95" type="priority"/>
    <node id="1488488213" x="7611.28" y="54868.55" type="priority"/>
    <node id="1524991069" x="3682.81" y="54250.70" type="priority"/>
    <node id="1524991076" x="3627.47" y="54367.10" type="priority"/>
    <node id="1524991100" x="3536.82" y="54452.15" type="priority"/>
    <node id="1524991106" x="3622.54" y="54461.11" type="priority"/>
    <node id="1524991128" x="3622.75" y="54588.00" type="priority"/>
    <node id="1525000942" x="3327.63" y="54390.19" type="priority"/>
    <node id="1525000948" x="3290.48" y="54556.56" type="priority"/>
    <node id="1525000956" x="3111.51" y="54836.58" type="priority"/>
    <node id="1525000985" x="3098.63" y="54986.52" type="priority"/>
    <node id="1632342963" x="5999.02" y="53252.37" type="priority"/>
    <node id="1632343010" x="6055.30" y="53212.74" type="priority"/>
    <node id="1632343369" x="6377.95" y="52941.51" type="priority"/>
    <node id="1632344173" x="4434.19" y="54609.19" type="priority"/>
    <node id="1632344403" x="7366.74" y="50501.27" type="priority"/>
    <node id="1632433761" x="0.00" y="55891.39" type="priority"/>
    <node id="1701964221" x="18111.38" y="57726.20" type="priority"/>
    <node id="1706781891" x="6615.00" y="52588.46" type="priority"/>
    <node id="1706781928" x="7210.86" y="51969.96" type="priority"/>
    <node id="1706781981" x="8481.81" y="54462.23" type="priority"/>
    <node id="1706782424" x="7392.98" y="51900.61" type="priority"/>
    <node id="1706835462" x="11921.37" y="52702.24" type="priority"/>
    <node id="1799386135" x="2992.94" y="55190.49" type="priority"/>
    <node id="1799386156" x="3121.37" y="54358.34" type="priority"/>
    <node id="1799386200" x="3301.31" y="54410.92" type="priority"/>
    <node id="1828346432" x="9462.92" y="56359.03" type="priority"/>
    <node id="1828346445" x="9485.63" y="56434.34" type="priority"/>
    <node id="1828346480" x="9160.73" y="56493.78" type="priority"/>
    <node id="1828346482" x="9386.67" y="56287.33" type="priority"/>
    <node id="1828346532" x="9333.46" y="55744.11" type="priority"/>
    <node id="1828346551" x="9161.46" y="56428.84" type="priority"/>
    <node id="1828346563" x="9273.33" y="56601.62" type="priority"/>
    <node id="1828346586" x="9346.60" y="55635.85" type="priority"/>
    <node id="1828346590" x="9477.86" y="56313.70" type="priority"/>
    <node id="1828354393" x="9312.41" y="56008.19" type="priority"/>
    <node id="1828354397" x="9557.84" y="56081.01" type="priority"/>
    <node id="1828354398" x="9299.50" y="56284.69" type="priority"/>
    <node id="1828354400" x="9526.71" y="56073.36" type="priority"/>
    <node id="1828354401" x="8788.80" y="57229.71" type="priority"/>
    <node id="1828354407" x="8250.20" y="55806.16" type="priority"/>
    <node id="1828354417" x="9053.40" y="56564.61" type="priority"/>
    <node id="1828354422" x="9292.53" y="55962.91" type="priority"/>
    <node id="1828354429" x="9199.37" y="56249.41" type="priority"/>
    <node id="1828354435" x="9241.46" y="55984.59" type="priority"/>
    <node id="1828354444" x="9303.89" y="56334.91" type="priority"/>
    <node id="1828354451" x="9416.05" y="56022.54" type="priority"/>
    <node id="1828354454" x="9171.37" y="56342.62" type="priority"/>
    <node id="1828354460" x="9117.79" y="56763.93" type="priority"/>